* NGSPICE file created from ram_5x32.ext - technology: gf180mcuD

* Black-box entry subcircuit for gf180mcu_fd_sc_mcu7t5v0__fill_1 abstract view
.subckt gf180mcu_fd_sc_mcu7t5v0__fill_1 VDD VNW VPW VSS
.ends

* Black-box entry subcircuit for gf180mcu_fd_sc_mcu7t5v0__antenna abstract view
.subckt gf180mcu_fd_sc_mcu7t5v0__antenna I VDD VNW VPW VSS
.ends

* Black-box entry subcircuit for gf180mcu_fd_sc_mcu7t5v0__dffq_1 abstract view
.subckt gf180mcu_fd_sc_mcu7t5v0__dffq_1 D CLK Q VDD VNW VPW VSS
.ends

* Black-box entry subcircuit for gf180mcu_fd_sc_mcu7t5v0__clkbuf_1 abstract view
.subckt gf180mcu_fd_sc_mcu7t5v0__clkbuf_1 I Z VDD VNW VPW VSS
.ends

* Black-box entry subcircuit for gf180mcu_fd_sc_mcu7t5v0__filltie abstract view
.subckt gf180mcu_fd_sc_mcu7t5v0__filltie VDD VSS
.ends

* Black-box entry subcircuit for gf180mcu_fd_sc_mcu7t5v0__fill_2 abstract view
.subckt gf180mcu_fd_sc_mcu7t5v0__fill_2 VDD VNW VPW VSS
.ends

* Black-box entry subcircuit for gf180mcu_fd_sc_mcu7t5v0__mux2_2 abstract view
.subckt gf180mcu_fd_sc_mcu7t5v0__mux2_2 I0 I1 S Z VDD VNW VPW VSS
.ends

* Black-box entry subcircuit for gf180mcu_fd_sc_mcu7t5v0__fillcap_32 abstract view
.subckt gf180mcu_fd_sc_mcu7t5v0__fillcap_32 VDD VNW VPW VSS
.ends

* Black-box entry subcircuit for gf180mcu_fd_sc_mcu7t5v0__clkbuf_8 abstract view
.subckt gf180mcu_fd_sc_mcu7t5v0__clkbuf_8 I Z VDD VNW VPW VSS
.ends

* Black-box entry subcircuit for gf180mcu_fd_sc_mcu7t5v0__fillcap_4 abstract view
.subckt gf180mcu_fd_sc_mcu7t5v0__fillcap_4 VDD VNW VPW VSS
.ends

* Black-box entry subcircuit for gf180mcu_fd_sc_mcu7t5v0__buf_4 abstract view
.subckt gf180mcu_fd_sc_mcu7t5v0__buf_4 I Z VDD VNW VPW VSS
.ends

* Black-box entry subcircuit for gf180mcu_fd_sc_mcu7t5v0__or2_1 abstract view
.subckt gf180mcu_fd_sc_mcu7t5v0__or2_1 A1 A2 Z VDD VNW VPW VSS
.ends

* Black-box entry subcircuit for gf180mcu_fd_sc_mcu7t5v0__buf_3 abstract view
.subckt gf180mcu_fd_sc_mcu7t5v0__buf_3 I Z VDD VNW VPW VSS
.ends

* Black-box entry subcircuit for gf180mcu_fd_sc_mcu7t5v0__fillcap_8 abstract view
.subckt gf180mcu_fd_sc_mcu7t5v0__fillcap_8 VDD VNW VPW VSS
.ends

* Black-box entry subcircuit for gf180mcu_fd_sc_mcu7t5v0__oai211_2 abstract view
.subckt gf180mcu_fd_sc_mcu7t5v0__oai211_2 A1 A2 B C ZN VDD VNW VPW VSS
.ends

* Black-box entry subcircuit for gf180mcu_fd_sc_mcu7t5v0__nand2_1 abstract view
.subckt gf180mcu_fd_sc_mcu7t5v0__nand2_1 A1 A2 ZN VDD VNW VPW VSS
.ends

* Black-box entry subcircuit for gf180mcu_fd_sc_mcu7t5v0__aoi21_1 abstract view
.subckt gf180mcu_fd_sc_mcu7t5v0__aoi21_1 A1 A2 B ZN VDD VNW VPW VSS
.ends

* Black-box entry subcircuit for gf180mcu_fd_sc_mcu7t5v0__nand3_4 abstract view
.subckt gf180mcu_fd_sc_mcu7t5v0__nand3_4 A1 A2 A3 ZN VDD VNW VPW VSS
.ends

* Black-box entry subcircuit for gf180mcu_fd_sc_mcu7t5v0__nor2_4 abstract view
.subckt gf180mcu_fd_sc_mcu7t5v0__nor2_4 A1 A2 ZN VDD VNW VPW VSS
.ends

* Black-box entry subcircuit for gf180mcu_fd_sc_mcu7t5v0__oai211_4 abstract view
.subckt gf180mcu_fd_sc_mcu7t5v0__oai211_4 A1 A2 B C ZN VDD VNW VPW VSS
.ends

* Black-box entry subcircuit for gf180mcu_fd_sc_mcu7t5v0__nand4_2 abstract view
.subckt gf180mcu_fd_sc_mcu7t5v0__nand4_2 A1 A2 A3 A4 ZN VDD VNW VPW VSS
.ends

* Black-box entry subcircuit for gf180mcu_fd_sc_mcu7t5v0__buf_2 abstract view
.subckt gf180mcu_fd_sc_mcu7t5v0__buf_2 I Z VDD VNW VPW VSS
.ends

* Black-box entry subcircuit for gf180mcu_fd_sc_mcu7t5v0__endcap abstract view
.subckt gf180mcu_fd_sc_mcu7t5v0__endcap VDD VSS
.ends

* Black-box entry subcircuit for gf180mcu_fd_sc_mcu7t5v0__fillcap_64 abstract view
.subckt gf180mcu_fd_sc_mcu7t5v0__fillcap_64 VDD VNW VPW VSS
.ends

* Black-box entry subcircuit for gf180mcu_fd_sc_mcu7t5v0__oai211_1 abstract view
.subckt gf180mcu_fd_sc_mcu7t5v0__oai211_1 A1 A2 B C ZN VDD VNW VPW VSS
.ends

* Black-box entry subcircuit for gf180mcu_fd_sc_mcu7t5v0__aoi22_1 abstract view
.subckt gf180mcu_fd_sc_mcu7t5v0__aoi22_1 A1 A2 B1 B2 ZN VDD VNW VPW VSS
.ends

* Black-box entry subcircuit for gf180mcu_fd_sc_mcu7t5v0__clkinv_1 abstract view
.subckt gf180mcu_fd_sc_mcu7t5v0__clkinv_1 I ZN VDD VNW VPW VSS
.ends

* Black-box entry subcircuit for gf180mcu_fd_sc_mcu7t5v0__nor2_2 abstract view
.subckt gf180mcu_fd_sc_mcu7t5v0__nor2_2 A1 A2 ZN VDD VNW VPW VSS
.ends

* Black-box entry subcircuit for gf180mcu_fd_sc_mcu7t5v0__clkbuf_3 abstract view
.subckt gf180mcu_fd_sc_mcu7t5v0__clkbuf_3 I Z VDD VNW VPW VSS
.ends

* Black-box entry subcircuit for gf180mcu_fd_sc_mcu7t5v0__nor3_4 abstract view
.subckt gf180mcu_fd_sc_mcu7t5v0__nor3_4 A1 A2 A3 ZN VDD VNW VPW VSS
.ends

* Black-box entry subcircuit for gf180mcu_fd_sc_mcu7t5v0__nand2_4 abstract view
.subckt gf180mcu_fd_sc_mcu7t5v0__nand2_4 A1 A2 ZN VDD VNW VPW VSS
.ends

* Black-box entry subcircuit for gf180mcu_fd_sc_mcu7t5v0__clkbuf_16 abstract view
.subckt gf180mcu_fd_sc_mcu7t5v0__clkbuf_16 I Z VDD VNW VPW VSS
.ends

* Black-box entry subcircuit for gf180mcu_fd_sc_mcu7t5v0__aoi221_4 abstract view
.subckt gf180mcu_fd_sc_mcu7t5v0__aoi221_4 A1 A2 B1 B2 C ZN VDD VNW VPW VSS
.ends

* Black-box entry subcircuit for gf180mcu_fd_sc_mcu7t5v0__oai31_1 abstract view
.subckt gf180mcu_fd_sc_mcu7t5v0__oai31_1 A1 A2 A3 B ZN VDD VNW VPW VSS
.ends

* Black-box entry subcircuit for gf180mcu_fd_sc_mcu7t5v0__fillcap_16 abstract view
.subckt gf180mcu_fd_sc_mcu7t5v0__fillcap_16 VDD VNW VPW VSS
.ends

* Black-box entry subcircuit for gf180mcu_fd_sc_mcu7t5v0__aoi22_2 abstract view
.subckt gf180mcu_fd_sc_mcu7t5v0__aoi22_2 A1 A2 B1 B2 ZN VDD VNW VPW VSS
.ends

* Black-box entry subcircuit for gf180mcu_fd_sc_mcu7t5v0__nand3_1 abstract view
.subckt gf180mcu_fd_sc_mcu7t5v0__nand3_1 A1 A2 A3 ZN VDD VNW VPW VSS
.ends

* Black-box entry subcircuit for gf180mcu_fd_sc_mcu7t5v0__clkbuf_4 abstract view
.subckt gf180mcu_fd_sc_mcu7t5v0__clkbuf_4 I Z VDD VNW VPW VSS
.ends

* Black-box entry subcircuit for gf180mcu_fd_sc_mcu7t5v0__and2_1 abstract view
.subckt gf180mcu_fd_sc_mcu7t5v0__and2_1 A1 A2 Z VDD VNW VPW VSS
.ends

* Black-box entry subcircuit for gf180mcu_fd_sc_mcu7t5v0__aoi221_2 abstract view
.subckt gf180mcu_fd_sc_mcu7t5v0__aoi221_2 A1 A2 B1 B2 C ZN VDD VNW VPW VSS
.ends

* Black-box entry subcircuit for gf180mcu_fd_sc_mcu7t5v0__aoi21_2 abstract view
.subckt gf180mcu_fd_sc_mcu7t5v0__aoi21_2 A1 A2 B ZN VDD VNW VPW VSS
.ends

* Black-box entry subcircuit for gf180mcu_fd_sc_mcu7t5v0__nand2_2 abstract view
.subckt gf180mcu_fd_sc_mcu7t5v0__nand2_2 A1 A2 ZN VDD VNW VPW VSS
.ends

* Black-box entry subcircuit for gf180mcu_fd_sc_mcu7t5v0__nand4_1 abstract view
.subckt gf180mcu_fd_sc_mcu7t5v0__nand4_1 A1 A2 A3 A4 ZN VDD VNW VPW VSS
.ends

* Black-box entry subcircuit for gf180mcu_fd_sc_mcu7t5v0__aoi221_1 abstract view
.subckt gf180mcu_fd_sc_mcu7t5v0__aoi221_1 A1 A2 B1 B2 C ZN VDD VNW VPW VSS
.ends

* Black-box entry subcircuit for gf180mcu_fd_sc_mcu7t5v0__clkinv_4 abstract view
.subckt gf180mcu_fd_sc_mcu7t5v0__clkinv_4 I ZN VDD VNW VPW VSS
.ends

* Black-box entry subcircuit for gf180mcu_fd_sc_mcu7t5v0__nand4_4 abstract view
.subckt gf180mcu_fd_sc_mcu7t5v0__nand4_4 A1 A2 A3 A4 ZN VDD VNW VPW VSS
.ends

* Black-box entry subcircuit for gf180mcu_fd_sc_mcu7t5v0__buf_8 abstract view
.subckt gf180mcu_fd_sc_mcu7t5v0__buf_8 I Z VDD VNW VPW VSS
.ends

* Black-box entry subcircuit for gf180mcu_fd_sc_mcu7t5v0__nand3_2 abstract view
.subckt gf180mcu_fd_sc_mcu7t5v0__nand3_2 A1 A2 A3 ZN VDD VNW VPW VSS
.ends

* Black-box entry subcircuit for gf180mcu_fd_sc_mcu7t5v0__inv_1 abstract view
.subckt gf180mcu_fd_sc_mcu7t5v0__inv_1 I ZN VDD VNW VPW VSS
.ends

* Black-box entry subcircuit for gf180mcu_fd_sc_mcu7t5v0__aoi21_4 abstract view
.subckt gf180mcu_fd_sc_mcu7t5v0__aoi21_4 A1 A2 B ZN VDD VNW VPW VSS
.ends

* Black-box entry subcircuit for gf180mcu_fd_sc_mcu7t5v0__and2_4 abstract view
.subckt gf180mcu_fd_sc_mcu7t5v0__and2_4 A1 A2 Z VDD VNW VPW VSS
.ends

* Black-box entry subcircuit for gf180mcu_fd_sc_mcu7t5v0__buf_1 abstract view
.subckt gf180mcu_fd_sc_mcu7t5v0__buf_1 I Z VDD VNW VPW VSS
.ends

* Black-box entry subcircuit for gf180mcu_fd_sc_mcu7t5v0__and2_2 abstract view
.subckt gf180mcu_fd_sc_mcu7t5v0__and2_2 A1 A2 Z VDD VNW VPW VSS
.ends

* Black-box entry subcircuit for gf180mcu_fd_sc_mcu7t5v0__clkinv_3 abstract view
.subckt gf180mcu_fd_sc_mcu7t5v0__clkinv_3 I ZN VDD VNW VPW VSS
.ends

* Black-box entry subcircuit for gf180mcu_fd_sc_mcu7t5v0__inv_3 abstract view
.subckt gf180mcu_fd_sc_mcu7t5v0__inv_3 I ZN VDD VNW VPW VSS
.ends

* Black-box entry subcircuit for gf180mcu_fd_sc_mcu7t5v0__clkbuf_2 abstract view
.subckt gf180mcu_fd_sc_mcu7t5v0__clkbuf_2 I Z VDD VNW VPW VSS
.ends

* Black-box entry subcircuit for gf180mcu_fd_sc_mcu7t5v0__inv_2 abstract view
.subckt gf180mcu_fd_sc_mcu7t5v0__inv_2 I ZN VDD VNW VPW VSS
.ends

* Black-box entry subcircuit for gf180mcu_fd_sc_mcu7t5v0__clkinv_8 abstract view
.subckt gf180mcu_fd_sc_mcu7t5v0__clkinv_8 I ZN VDD VNW VPW VSS
.ends

.subckt ram_5x32 address_i[0] address_i[1] address_i[2] address_i[3] address_i[4]
+ clk_i data_i[0] data_i[10] data_i[11] data_i[12] data_i[13] data_i[14] data_i[15]
+ data_i[16] data_i[17] data_i[18] data_i[19] data_i[1] data_i[20] data_i[21] data_i[22]
+ data_i[23] data_i[24] data_i[25] data_i[26] data_i[27] data_i[28] data_i[29] data_i[2]
+ data_i[30] data_i[31] data_i[3] data_i[4] data_i[5] data_i[6] data_i[7] data_i[8]
+ data_i[9] data_o[0] data_o[10] data_o[11] data_o[12] data_o[13] data_o[14] data_o[15]
+ data_o[16] data_o[17] data_o[18] data_o[19] data_o[1] data_o[20] data_o[21] data_o[22]
+ data_o[23] data_o[24] data_o[25] data_o[26] data_o[27] data_o[28] data_o[29] data_o[2]
+ data_o[30] data_o[31] data_o[3] data_o[4] data_o[5] data_o[6] data_o[7] data_o[8]
+ data_o[9] vdd vss we_i
XFILLER_0_118_73 vdd vdd vss vss gf180mcu_fd_sc_mcu7t5v0__fill_1
XANTENNA__5417__B1 _2025_ vdd vdd vss vss gf180mcu_fd_sc_mcu7t5v0__antenna
XANTENNA__6626__S _2919_ vdd vdd vss vss gf180mcu_fd_sc_mcu7t5v0__antenna
XANTENNA__5968__A1 _2382_ vdd vdd vss vss gf180mcu_fd_sc_mcu7t5v0__antenna
X_7963_ _0263_ clknet_leaf_40_clk_i memory\[20\]\[26\] vdd vdd vss vss gf180mcu_fd_sc_mcu7t5v0__dffq_1
XANTENNA__4146__S _1261_ vdd vdd vss vss gf180mcu_fd_sc_mcu7t5v0__antenna
X_6914_ _3434_ _0685_ vdd vdd vss vss gf180mcu_fd_sc_mcu7t5v0__clkbuf_1
X_7894_ _0194_ clknet_leaf_29_clk_i memory\[18\]\[21\] vdd vdd vss vss gf180mcu_fd_sc_mcu7t5v0__dffq_1
XTAP_TAPCELL_ROW_25_629 vdd vss gf180mcu_fd_sc_mcu7t5v0__filltie
XFILLER_0_64_317 vdd vdd vss vss gf180mcu_fd_sc_mcu7t5v0__fill_2
XFILLER_0_9_422 vdd vdd vss vss gf180mcu_fd_sc_mcu7t5v0__fill_2
X_6845_ memory\[14\]\[0\] _1164_ _3397_ _3398_ vdd vdd vss vss gf180mcu_fd_sc_mcu7t5v0__mux2_2
XFILLER_0_135_717 vdd vdd vss vss gf180mcu_fd_sc_mcu7t5v0__fillcap_32
X_6776_ _3360_ _3361_ vdd vdd vss vss gf180mcu_fd_sc_mcu7t5v0__clkbuf_8
XFILLER_0_17_200 vdd vdd vss vss gf180mcu_fd_sc_mcu7t5v0__fillcap_4
XFILLER_0_18_745 vdd vdd vss vss gf180mcu_fd_sc_mcu7t5v0__fill_2
X_3988_ net25 _1154_ vdd vdd vss vss gf180mcu_fd_sc_mcu7t5v0__buf_4
XANTENNA__6393__A1 _2796_ vdd vdd vss vss gf180mcu_fd_sc_mcu7t5v0__antenna
XFILLER_0_116_920 vdd vdd vss vss gf180mcu_fd_sc_mcu7t5v0__fill_2
XFILLER_0_91_169 vdd vdd vss vss gf180mcu_fd_sc_mcu7t5v0__fill_2
X_8515_ _0815_ clknet_leaf_118_clk_i memory\[8\]\[2\] vdd vdd vss vss gf180mcu_fd_sc_mcu7t5v0__dffq_1
X_5727_ _1957_ memory\[26\]\[9\] _2335_ vdd vdd vss vss gf180mcu_fd_sc_mcu7t5v0__or2_1
XFILLER_0_115_430 vdd vdd vss vss gf180mcu_fd_sc_mcu7t5v0__fill_1
X_8446_ _0746_ clknet_leaf_198_clk_i memory\[13\]\[29\] vdd vdd vss vss gf180mcu_fd_sc_mcu7t5v0__dffq_1
XFILLER_0_131_912 vdd vdd vss vss gf180mcu_fd_sc_mcu7t5v0__fillcap_32
X_5658_ _1988_ memory\[0\]\[7\] _2268_ vdd vdd vss vss gf180mcu_fd_sc_mcu7t5v0__or2_1
XANTENNA__6940__I0 _1125_ vdd vdd vss vss gf180mcu_fd_sc_mcu7t5v0__antenna
XFILLER_0_103_658 vdd vdd vss vss gf180mcu_fd_sc_mcu7t5v0__fill_2
XANTENNA__7192__S _3578_ vdd vdd vss vss gf180mcu_fd_sc_mcu7t5v0__antenna
X_5589_ _1856_ _2200_ vdd vdd vss vss gf180mcu_fd_sc_mcu7t5v0__buf_3
X_4609_ memory\[21\]\[28\] _1229_ _1509_ _1518_ vdd vdd vss vss gf180mcu_fd_sc_mcu7t5v0__mux2_2
XFILLER_0_4_193 vdd vdd vss vss gf180mcu_fd_sc_mcu7t5v0__fillcap_8
XFILLER_0_4_171 vdd vdd vss vss gf180mcu_fd_sc_mcu7t5v0__fillcap_4
X_8377_ _0677_ clknet_leaf_0_clk_i memory\[14\]\[24\] vdd vdd vss vss gf180mcu_fd_sc_mcu7t5v0__dffq_1
X_7328_ _1104_ memory\[4\]\[3\] _3650_ _3654_ vdd vdd vss vss gf180mcu_fd_sc_mcu7t5v0__mux2_2
X_7259_ _3617_ _0847_ vdd vdd vss vss gf180mcu_fd_sc_mcu7t5v0__clkbuf_1
XTAP_TAPCELL_ROW_5_365 vdd vss gf180mcu_fd_sc_mcu7t5v0__filltie
XANTENNA__5959__A1 _2562_ vdd vdd vss vss gf180mcu_fd_sc_mcu7t5v0__antenna
XFILLER_0_96_943 vdd vdd vss vss gf180mcu_fd_sc_mcu7t5v0__fill_2
XFILLER_0_68_634 vdd vdd vss vss gf180mcu_fd_sc_mcu7t5v0__fill_1
XFILLER_0_56_807 vdd vdd vss vss gf180mcu_fd_sc_mcu7t5v0__fill_2
XANTENNA__4482__I1 _1164_ vdd vdd vss vss gf180mcu_fd_sc_mcu7t5v0__antenna
XFILLER_0_23_18 vdd vdd vss vss gf180mcu_fd_sc_mcu7t5v0__fill_2
XFILLER_0_95_475 vdd vdd vss vss gf180mcu_fd_sc_mcu7t5v0__fillcap_4
XFILLER_0_95_464 vdd vdd vss vss gf180mcu_fd_sc_mcu7t5v0__fill_1
XANTENNA__3895__S _1087_ vdd vdd vss vss gf180mcu_fd_sc_mcu7t5v0__antenna
XFILLER_0_95_486 vdd vdd vss vss gf180mcu_fd_sc_mcu7t5v0__fill_2
XFILLER_0_82_136 vdd vdd vss vss gf180mcu_fd_sc_mcu7t5v0__fill_2
XFILLER_0_49_881 vdd vdd vss vss gf180mcu_fd_sc_mcu7t5v0__fill_2
XFILLER_0_125_216 vdd vdd vss vss gf180mcu_fd_sc_mcu7t5v0__fill_1
XFILLER_0_64_851 vdd vdd vss vss gf180mcu_fd_sc_mcu7t5v0__fill_2
XFILLER_0_64_840 vdd vdd vss vss gf180mcu_fd_sc_mcu7t5v0__fill_1
XTAP_TAPCELL_ROW_52_993 vdd vss gf180mcu_fd_sc_mcu7t5v0__filltie
XFILLER_0_125_238 vdd vdd vss vss gf180mcu_fd_sc_mcu7t5v0__fill_1
XFILLER_0_23_214 vdd vdd vss vss gf180mcu_fd_sc_mcu7t5v0__fill_1
XFILLER_0_24_737 vdd vdd vss vss gf180mcu_fd_sc_mcu7t5v0__fill_2
XFILLER_0_133_282 vdd vdd vss vss gf180mcu_fd_sc_mcu7t5v0__fill_2
XFILLER_0_122_967 vdd vdd vss vss gf180mcu_fd_sc_mcu7t5v0__fill_1
XFILLER_0_121_422 vdd vdd vss vss gf180mcu_fd_sc_mcu7t5v0__fillcap_4
XANTENNA__5615__S _1992_ vdd vdd vss vss gf180mcu_fd_sc_mcu7t5v0__antenna
XANTENNA__6931__I0 _1116_ vdd vdd vss vss gf180mcu_fd_sc_mcu7t5v0__antenna
XANTENNA__6687__A2 net60 vdd vdd vss vss gf180mcu_fd_sc_mcu7t5v0__antenna
XFILLER_0_32_770 vdd vdd vss vss gf180mcu_fd_sc_mcu7t5v0__fill_2
XTAP_TAPCELL_ROW_114_1834 vdd vss gf180mcu_fd_sc_mcu7t5v0__filltie
XFILLER_0_101_190 vdd vdd vss vss gf180mcu_fd_sc_mcu7t5v0__fill_2
XANTENNA__5414__I _1057_ vdd vdd vss vss gf180mcu_fd_sc_mcu7t5v0__antenna
XANTENNA__3869__I net20 vdd vdd vss vss gf180mcu_fd_sc_mcu7t5v0__antenna
XTAP_TAPCELL_ROW_125_1985 vdd vss gf180mcu_fd_sc_mcu7t5v0__filltie
X_4960_ _1089_ memory\[26\]\[30\] _1673_ _1707_ vdd vdd vss vss gf180mcu_fd_sc_mcu7t5v0__mux2_2
XANTENNA__7277__S _3625_ vdd vdd vss vss gf180mcu_fd_sc_mcu7t5v0__antenna
XFILLER_0_129_511 vdd vdd vss vss gf180mcu_fd_sc_mcu7t5v0__fill_2
X_3911_ net28 _1102_ vdd vdd vss vss gf180mcu_fd_sc_mcu7t5v0__buf_3
XFILLER_0_59_667 vdd vdd vss vss gf180mcu_fd_sc_mcu7t5v0__fill_2
X_4891_ _1670_ _0426_ vdd vdd vss vss gf180mcu_fd_sc_mcu7t5v0__clkbuf_1
XFILLER_0_129_566 vdd vdd vss vss gf180mcu_fd_sc_mcu7t5v0__fill_2
XFILLER_0_117_717 vdd vdd vss vss gf180mcu_fd_sc_mcu7t5v0__fill_2
XFILLER_0_58_188 vdd vdd vss vss gf180mcu_fd_sc_mcu7t5v0__fill_2
XFILLER_0_58_177 vdd vdd vss vss gf180mcu_fd_sc_mcu7t5v0__fillcap_4
XFILLER_0_46_317 vdd vdd vss vss gf180mcu_fd_sc_mcu7t5v0__fill_2
XANTENNA__6375__A1 _2776_ vdd vdd vss vss gf180mcu_fd_sc_mcu7t5v0__antenna
X_6630_ _1987_ memory\[11\]\[28\] _3218_ _1907_ _3219_ vdd vdd vss vss gf180mcu_fd_sc_mcu7t5v0__oai211_2
XFILLER_0_104_86 vdd vdd vss vss gf180mcu_fd_sc_mcu7t5v0__fill_2
XFILLER_0_73_136 vdd vdd vss vss gf180mcu_fd_sc_mcu7t5v0__fill_2
XFILLER_0_55_862 vdd vdd vss vss gf180mcu_fd_sc_mcu7t5v0__fill_2
X_6561_ _2796_ net57 _3152_ vdd vdd vss vss gf180mcu_fd_sc_mcu7t5v0__nand2_1
XFILLER_0_13_84 vdd vdd vss vss gf180mcu_fd_sc_mcu7t5v0__fill_2
X_8300_ _0600_ clknet_leaf_58_clk_i net41 vdd vdd vss vss gf180mcu_fd_sc_mcu7t5v0__dffq_1
XANTENNA_clkbuf_leaf_133_clk_i_I clknet_4_9_0_clk_i vdd vdd vss vss gf180mcu_fd_sc_mcu7t5v0__antenna
X_5512_ memory\[12\]\[4\] memory\[13\]\[4\] _1978_ _2125_ vdd vdd vss vss gf180mcu_fd_sc_mcu7t5v0__mux2_2
XFILLER_0_125_772 vdd vdd vss vss gf180mcu_fd_sc_mcu7t5v0__fill_2
XFILLER_0_124_260 vdd vdd vss vss gf180mcu_fd_sc_mcu7t5v0__fill_2
XFILLER_0_89_66 vdd vdd vss vss gf180mcu_fd_sc_mcu7t5v0__fillcap_4
X_6492_ _3081_ _2760_ _3083_ _2716_ _3084_ vdd vdd vss vss gf180mcu_fd_sc_mcu7t5v0__oai211_2
XFILLER_0_70_865 vdd vdd vss vss gf180mcu_fd_sc_mcu7t5v0__fill_2
XFILLER_0_14_247 vdd vdd vss vss gf180mcu_fd_sc_mcu7t5v0__fill_2
XTAP_TAPCELL_ROW_30_698 vdd vss gf180mcu_fd_sc_mcu7t5v0__filltie
XFILLER_0_125_794 vdd vdd vss vss gf180mcu_fd_sc_mcu7t5v0__fill_2
X_8231_ _0531_ clknet_leaf_114_clk_i memory\[2\]\[6\] vdd vdd vss vss gf180mcu_fd_sc_mcu7t5v0__dffq_1
XTAP_TAPCELL_ROW_76_1328 vdd vss gf180mcu_fd_sc_mcu7t5v0__filltie
XTAP_TAPCELL_ROW_76_1317 vdd vss gf180mcu_fd_sc_mcu7t5v0__filltie
XFILLER_0_14_258 vdd vdd vss vss gf180mcu_fd_sc_mcu7t5v0__fill_2
XFILLER_0_14_269 vdd vdd vss vss gf180mcu_fd_sc_mcu7t5v0__fill_1
X_5443_ memory\[24\]\[3\] _1859_ _2057_ vdd vdd vss vss gf180mcu_fd_sc_mcu7t5v0__nand2_1
XFILLER_0_120_85 vdd vdd vss vss gf180mcu_fd_sc_mcu7t5v0__fillcap_4
X_5374_ _1872_ _1990_ vdd vdd vss vss gf180mcu_fd_sc_mcu7t5v0__buf_4
X_8162_ _0462_ clknet_leaf_165_clk_i memory\[27\]\[1\] vdd vdd vss vss gf180mcu_fd_sc_mcu7t5v0__dffq_1
X_7113_ _3539_ _0779_ vdd vdd vss vss gf180mcu_fd_sc_mcu7t5v0__clkbuf_1
X_4325_ _1364_ _0166_ vdd vdd vss vss gf180mcu_fd_sc_mcu7t5v0__clkbuf_1
XFILLER_0_10_442 vdd vdd vss vss gf180mcu_fd_sc_mcu7t5v0__fill_1
XANTENNA__5324__I _1882_ vdd vdd vss vss gf180mcu_fd_sc_mcu7t5v0__antenna
X_8093_ _0393_ clknet_leaf_8_clk_i memory\[24\]\[28\] vdd vdd vss vss gf180mcu_fd_sc_mcu7t5v0__dffq_1
XFILLER_0_129_72 vdd vdd vss vss gf180mcu_fd_sc_mcu7t5v0__fillcap_32
X_4256_ _1078_ memory\[29\]\[25\] _1322_ _1328_ vdd vdd vss vss gf180mcu_fd_sc_mcu7t5v0__mux2_2
X_7044_ _3502_ _0747_ vdd vdd vss vss gf180mcu_fd_sc_mcu7t5v0__clkbuf_1
XANTENNA__4161__I0 _1273_ vdd vdd vss vss gf180mcu_fd_sc_mcu7t5v0__antenna
XANTENNA__6356__S _2532_ vdd vdd vss vss gf180mcu_fd_sc_mcu7t5v0__antenna
X_4187_ _1288_ _0104_ vdd vdd vss vss gf180mcu_fd_sc_mcu7t5v0__clkbuf_1
XANTENNA_clkbuf_leaf_58_clk_i_I clknet_4_7_0_clk_i vdd vdd vss vss gf180mcu_fd_sc_mcu7t5v0__antenna
XTAP_TAPCELL_ROW_2_324 vdd vss gf180mcu_fd_sc_mcu7t5v0__filltie
XANTENNA__6155__I _1882_ vdd vdd vss vss gf180mcu_fd_sc_mcu7t5v0__antenna
XTAP_TAPCELL_ROW_87_1468 vdd vss gf180mcu_fd_sc_mcu7t5v0__filltie
X_7946_ _0246_ clknet_leaf_131_clk_i memory\[20\]\[9\] vdd vdd vss vss gf180mcu_fd_sc_mcu7t5v0__dffq_1
X_7877_ _0177_ clknet_leaf_143_clk_i memory\[18\]\[4\] vdd vdd vss vss gf180mcu_fd_sc_mcu7t5v0__dffq_1
XANTENNA__6091__S _2270_ vdd vdd vss vss gf180mcu_fd_sc_mcu7t5v0__antenna
XANTENNA__5927__C _2389_ vdd vdd vss vss gf180mcu_fd_sc_mcu7t5v0__antenna
XANTENNA__5169__A2 _1374_ vdd vdd vss vss gf180mcu_fd_sc_mcu7t5v0__antenna
X_6828_ _3388_ _0645_ vdd vdd vss vss gf180mcu_fd_sc_mcu7t5v0__clkbuf_1
XFILLER_0_135_525 vdd vdd vss vss gf180mcu_fd_sc_mcu7t5v0__fillcap_4
XFILLER_0_107_227 vdd vdd vss vss gf180mcu_fd_sc_mcu7t5v0__fill_2
XFILLER_0_46_862 vdd vdd vss vss gf180mcu_fd_sc_mcu7t5v0__fill_2
XFILLER_0_18_586 vdd vdd vss vss gf180mcu_fd_sc_mcu7t5v0__fill_2
X_6759_ _3342_ _3344_ _1890_ _3345_ vdd vdd vss vss gf180mcu_fd_sc_mcu7t5v0__aoi21_1
XANTENNA__6118__A1 _2674_ vdd vdd vss vss gf180mcu_fd_sc_mcu7t5v0__antenna
XFILLER_0_61_865 vdd vdd vss vss gf180mcu_fd_sc_mcu7t5v0__fill_1
X_8429_ _0729_ clknet_leaf_64_clk_i memory\[13\]\[12\] vdd vdd vss vss gf180mcu_fd_sc_mcu7t5v0__dffq_1
XFILLER_0_103_422 vdd vdd vss vss gf180mcu_fd_sc_mcu7t5v0__fillcap_4
XANTENNA__6913__I0 _1093_ vdd vdd vss vss gf180mcu_fd_sc_mcu7t5v0__antenna
XANTENNA__6669__A2 _1896_ vdd vdd vss vss gf180mcu_fd_sc_mcu7t5v0__antenna
XFILLER_0_21_729 vdd vdd vss vss gf180mcu_fd_sc_mcu7t5v0__fillcap_4
XFILLER_0_60_397 vdd vdd vss vss gf180mcu_fd_sc_mcu7t5v0__fill_1
XFILLER_0_14_770 vdd vdd vss vss gf180mcu_fd_sc_mcu7t5v0__fill_2
XTAP_TAPCELL_ROW_129_2041 vdd vss gf180mcu_fd_sc_mcu7t5v0__filltie
XANTENNA__4152__I0 _1267_ vdd vdd vss vss gf180mcu_fd_sc_mcu7t5v0__antenna
XFILLER_0_87_206 vdd vdd vss vss gf180mcu_fd_sc_mcu7t5v0__fill_2
XANTENNA__6065__I _1293_ vdd vdd vss vss gf180mcu_fd_sc_mcu7t5v0__antenna
XFILLER_0_34_28 vdd vdd vss vss gf180mcu_fd_sc_mcu7t5v0__fillcap_4
XANTENNA__7641__I1 net20 vdd vdd vss vss gf180mcu_fd_sc_mcu7t5v0__antenna
XTAP_TAPCELL_ROW_60_1107 vdd vss gf180mcu_fd_sc_mcu7t5v0__filltie
XFILLER_0_56_626 vdd vdd vss vss gf180mcu_fd_sc_mcu7t5v0__fill_2
XANTENNA__6357__A1 _2754_ vdd vdd vss vss gf180mcu_fd_sc_mcu7t5v0__antenna
XANTENNA__4313__I _1335_ vdd vdd vss vss gf180mcu_fd_sc_mcu7t5v0__antenna
XFILLER_0_113_208 vdd vdd vss vss gf180mcu_fd_sc_mcu7t5v0__fill_2
XFILLER_0_12_729 vdd vdd vss vss gf180mcu_fd_sc_mcu7t5v0__fill_2
XFILLER_0_121_241 vdd vdd vss vss gf180mcu_fd_sc_mcu7t5v0__fill_2
XFILLER_0_110_959 vdd vdd vss vss gf180mcu_fd_sc_mcu7t5v0__fill_2
XANTENNA__7560__S _3770_ vdd vdd vss vss gf180mcu_fd_sc_mcu7t5v0__antenna
XANTENNA__5144__I _1782_ vdd vdd vss vss gf180mcu_fd_sc_mcu7t5v0__antenna
XTAP_TAPCELL_ROW_71_1258 vdd vss gf180mcu_fd_sc_mcu7t5v0__filltie
X_4110_ _1238_ _1062_ _1166_ _1239_ vdd vdd vss vss gf180mcu_fd_sc_mcu7t5v0__nand3_4
X_5090_ _1776_ _0519_ vdd vdd vss vss gf180mcu_fd_sc_mcu7t5v0__clkbuf_1
XANTENNA__4143__I0 _1260_ vdd vdd vss vss gf180mcu_fd_sc_mcu7t5v0__antenna
X_4041_ _1170_ _1192_ vdd vdd vss vss gf180mcu_fd_sc_mcu7t5v0__clkbuf_8
X_5992_ _2310_ memory\[11\]\[14\] _2594_ _2174_ _2595_ vdd vdd vss vss gf180mcu_fd_sc_mcu7t5v0__oai211_2
XANTENNA__7632__I1 net15 vdd vdd vss vss gf180mcu_fd_sc_mcu7t5v0__antenna
X_7800_ _0100_ clknet_leaf_220_clk_i memory\[15\]\[23\] vdd vdd vss vss gf180mcu_fd_sc_mcu7t5v0__dffq_1
XFILLER_0_93_209 vdd vdd vss vss gf180mcu_fd_sc_mcu7t5v0__fill_1
XFILLER_0_91_89 vdd vdd vss vss gf180mcu_fd_sc_mcu7t5v0__fillcap_4
X_7731_ _0031_ clknet_leaf_31_clk_i memory\[19\]\[18\] vdd vdd vss vss gf180mcu_fd_sc_mcu7t5v0__dffq_1
X_4943_ _1698_ _0450_ vdd vdd vss vss gf180mcu_fd_sc_mcu7t5v0__clkbuf_1
XFILLER_0_129_352 vdd vdd vss vss gf180mcu_fd_sc_mcu7t5v0__fillcap_4
XANTENNA__5747__C _1918_ vdd vdd vss vss gf180mcu_fd_sc_mcu7t5v0__antenna
X_7662_ _3830_ _1037_ vdd vdd vss vss gf180mcu_fd_sc_mcu7t5v0__clkbuf_1
XTAP_TAPCELL_ROW_35_768 vdd vss gf180mcu_fd_sc_mcu7t5v0__filltie
XFILLER_0_129_363 vdd vdd vss vss gf180mcu_fd_sc_mcu7t5v0__fillcap_4
XTAP_TAPCELL_ROW_82_1398 vdd vss gf180mcu_fd_sc_mcu7t5v0__filltie
X_4874_ _1070_ memory\[25\]\[21\] _1660_ _1662_ vdd vdd vss vss gf180mcu_fd_sc_mcu7t5v0__mux2_2
XANTENNA__7396__I0 _1104_ vdd vdd vss vss gf180mcu_fd_sc_mcu7t5v0__antenna
X_6613_ _1932_ _3201_ _1856_ _3202_ vdd vdd vss vss gf180mcu_fd_sc_mcu7t5v0__aoi21_1
XFILLER_0_28_840 vdd vdd vss vss gf180mcu_fd_sc_mcu7t5v0__fill_2
X_7593_ _3757_ _1522_ _3794_ vdd vdd vss vss gf180mcu_fd_sc_mcu7t5v0__nor2_4
XFILLER_0_43_821 vdd vdd vss vss gf180mcu_fd_sc_mcu7t5v0__fill_1
XFILLER_0_55_692 vdd vdd vss vss gf180mcu_fd_sc_mcu7t5v0__fill_2
XFILLER_0_43_854 vdd vdd vss vss gf180mcu_fd_sc_mcu7t5v0__fill_1
X_6544_ _3132_ _2872_ _3134_ _2826_ _3135_ vdd vdd vss vss gf180mcu_fd_sc_mcu7t5v0__oai211_4
XANTENNA__5763__B _2136_ vdd vdd vss vss gf180mcu_fd_sc_mcu7t5v0__antenna
X_6475_ _2933_ _3064_ _3066_ _3067_ _3068_ vdd vdd vss vss gf180mcu_fd_sc_mcu7t5v0__nand4_2
X_8214_ _0514_ clknet_leaf_14_clk_i memory\[28\]\[21\] vdd vdd vss vss gf180mcu_fd_sc_mcu7t5v0__dffq_1
X_5426_ _2038_ _2040_ _1939_ _2041_ vdd vdd vss vss gf180mcu_fd_sc_mcu7t5v0__aoi21_1
XANTENNA__6578__C _2003_ vdd vdd vss vss gf180mcu_fd_sc_mcu7t5v0__antenna
XFILLER_0_64_2 vdd vdd vss vss gf180mcu_fd_sc_mcu7t5v0__fill_2
XANTENNA__7470__S _3722_ vdd vdd vss vss gf180mcu_fd_sc_mcu7t5v0__antenna
X_8145_ _0445_ clknet_leaf_43_clk_i memory\[26\]\[16\] vdd vdd vss vss gf180mcu_fd_sc_mcu7t5v0__dffq_1
X_5357_ memory\[16\]\[1\] memory\[17\]\[1\] _1911_ _1973_ vdd vdd vss vss gf180mcu_fd_sc_mcu7t5v0__mux2_2
XFILLER_0_11_784 vdd vdd vss vss gf180mcu_fd_sc_mcu7t5v0__fill_1
X_8076_ _0376_ clknet_leaf_55_clk_i memory\[24\]\[11\] vdd vdd vss vss gf180mcu_fd_sc_mcu7t5v0__dffq_1
X_4308_ _1355_ _0158_ vdd vdd vss vss gf180mcu_fd_sc_mcu7t5v0__clkbuf_1
X_5288_ _1863_ _1905_ vdd vdd vss vss gf180mcu_fd_sc_mcu7t5v0__buf_2
XANTENNA__6086__S _2314_ vdd vdd vss vss gf180mcu_fd_sc_mcu7t5v0__antenna
XANTENNA_input36_I data_i[8] vdd vdd vss vss gf180mcu_fd_sc_mcu7t5v0__antenna
X_4239_ _1275_ memory\[29\]\[17\] _1311_ _1319_ vdd vdd vss vss gf180mcu_fd_sc_mcu7t5v0__mux2_2
X_7027_ memory\[13\]\[22\] _1217_ _3491_ _3494_ vdd vdd vss vss gf180mcu_fd_sc_mcu7t5v0__mux2_2
XANTENNA__6814__S _3372_ vdd vdd vss vss gf180mcu_fd_sc_mcu7t5v0__antenna
XANTENNA__6587__A1 _2828_ vdd vdd vss vss gf180mcu_fd_sc_mcu7t5v0__antenna
X_7929_ _0229_ clknet_leaf_208_clk_i memory\[1\]\[24\] vdd vdd vss vss gf180mcu_fd_sc_mcu7t5v0__dffq_1
XFILLER_0_136_801 vdd vdd vss vss gf180mcu_fd_sc_mcu7t5v0__fillcap_4
XFILLER_0_93_710 vdd vdd vss vss gf180mcu_fd_sc_mcu7t5v0__fill_2
XANTENNA__4334__S _1335_ vdd vdd vss vss gf180mcu_fd_sc_mcu7t5v0__antenna
XFILLER_0_81_916 vdd vdd vss vss gf180mcu_fd_sc_mcu7t5v0__fill_2
XFILLER_0_37_136 vdd vdd vss vss gf180mcu_fd_sc_mcu7t5v0__fill_2
XFILLER_0_108_536 vdd vdd vss vss gf180mcu_fd_sc_mcu7t5v0__fill_2
XFILLER_0_92_264 vdd vdd vss vss gf180mcu_fd_sc_mcu7t5v0__fill_1
XFILLER_0_80_415 vdd vdd vss vss gf180mcu_fd_sc_mcu7t5v0__fill_2
XANTENNA__7645__S _3817_ vdd vdd vss vss gf180mcu_fd_sc_mcu7t5v0__antenna
XPHY_EDGE_ROW_137_Right_137 vdd vss gf180mcu_fd_sc_mcu7t5v0__endcap
XFILLER_0_92_297 vdd vdd vss vss gf180mcu_fd_sc_mcu7t5v0__fillcap_4
XANTENNA__5165__S _1782_ vdd vdd vss vss gf180mcu_fd_sc_mcu7t5v0__antenna
XFILLER_0_34_898 vdd vdd vss vss gf180mcu_fd_sc_mcu7t5v0__fill_1
XANTENNA__6511__A1 _2884_ vdd vdd vss vss gf180mcu_fd_sc_mcu7t5v0__antenna
XANTENNA__4373__I0 _1269_ vdd vdd vss vss gf180mcu_fd_sc_mcu7t5v0__antenna
XANTENNA__7380__S _3672_ vdd vdd vss vss gf180mcu_fd_sc_mcu7t5v0__antenna
XANTENNA__4509__S _1461_ vdd vdd vss vss gf180mcu_fd_sc_mcu7t5v0__antenna
XANTENNA__4676__I1 _1227_ vdd vdd vss vss gf180mcu_fd_sc_mcu7t5v0__antenna
XFILLER_0_45_16 vdd vdd vss vss gf180mcu_fd_sc_mcu7t5v0__fill_2
XTAP_TAPCELL_ROW_109_1766 vdd vss gf180mcu_fd_sc_mcu7t5v0__filltie
XFILLER_0_88_537 vdd vdd vss vss gf180mcu_fd_sc_mcu7t5v0__fill_2
XANTENNA__6578__A1 _1876_ vdd vdd vss vss gf180mcu_fd_sc_mcu7t5v0__antenna
XFILLER_0_75_209 vdd vdd vss vss gf180mcu_fd_sc_mcu7t5v0__fill_1
XTAP_TAPCELL_ROW_122_1944 vdd vss gf180mcu_fd_sc_mcu7t5v0__filltie
XFILLER_0_96_592 vdd vdd vss vss gf180mcu_fd_sc_mcu7t5v0__fill_2
XTAP_TAPCELL_ROW_32_727 vdd vss gf180mcu_fd_sc_mcu7t5v0__filltie
XANTENNA__7378__I0 _1154_ vdd vdd vss vss gf180mcu_fd_sc_mcu7t5v0__antenna
XFILLER_0_126_344 vdd vdd vss vss gf180mcu_fd_sc_mcu7t5v0__fillcap_4
XFILLER_0_71_404 vdd vdd vss vss gf180mcu_fd_sc_mcu7t5v0__fill_2
XFILLER_0_126_377 vdd vdd vss vss gf180mcu_fd_sc_mcu7t5v0__fill_2
XPHY_EDGE_ROW_104_Right_104 vdd vss gf180mcu_fd_sc_mcu7t5v0__endcap
X_4590_ memory\[21\]\[19\] _1210_ _1498_ _1508_ vdd vdd vss vss gf180mcu_fd_sc_mcu7t5v0__mux2_2
XFILLER_0_71_448 vdd vdd vss vss gf180mcu_fd_sc_mcu7t5v0__fillcap_4
XTAP_TAPCELL_ROW_12_462 vdd vss gf180mcu_fd_sc_mcu7t5v0__filltie
XFILLER_0_4_737 vdd vdd vss vss gf180mcu_fd_sc_mcu7t5v0__fillcap_64
XANTENNA__6679__B _1913_ vdd vdd vss vss gf180mcu_fd_sc_mcu7t5v0__antenna
XFILLER_0_12_515 vdd vdd vss vss gf180mcu_fd_sc_mcu7t5v0__fill_2
XFILLER_0_110_734 vdd vdd vss vss gf180mcu_fd_sc_mcu7t5v0__fill_1
X_6260_ memory\[30\]\[20\] memory\[31\]\[20\] _2532_ _2857_ vdd vdd vss vss gf180mcu_fd_sc_mcu7t5v0__mux2_2
XFILLER_0_110_745 vdd vdd vss vss gf180mcu_fd_sc_mcu7t5v0__fill_2
X_6191_ memory\[4\]\[18\] _2468_ _2790_ vdd vdd vss vss gf180mcu_fd_sc_mcu7t5v0__nand2_1
XFILLER_0_86_34 vdd vdd vss vss gf180mcu_fd_sc_mcu7t5v0__fill_1
X_5211_ _1840_ _0576_ vdd vdd vss vss gf180mcu_fd_sc_mcu7t5v0__clkbuf_1
XFILLER_0_0_954 vdd vdd vss vss gf180mcu_fd_sc_mcu7t5v0__fillcap_8
X_5142_ _1137_ memory\[2\]\[19\] _1794_ _1804_ vdd vdd vss vss gf180mcu_fd_sc_mcu7t5v0__mux2_2
XFILLER_0_50_8 vdd vdd vss vss gf180mcu_fd_sc_mcu7t5v0__fill_2
XANTENNA__7302__I0 _1146_ vdd vdd vss vss gf180mcu_fd_sc_mcu7t5v0__antenna
XFILLER_0_19_72 vdd vdd vss vss gf180mcu_fd_sc_mcu7t5v0__fillcap_4
XFILLER_0_19_83 vdd vdd vss vss gf180mcu_fd_sc_mcu7t5v0__fill_2
X_5073_ _1767_ _0511_ vdd vdd vss vss gf180mcu_fd_sc_mcu7t5v0__clkbuf_1
XANTENNA__4419__S _1413_ vdd vdd vss vss gf180mcu_fd_sc_mcu7t5v0__antenna
X_4024_ _1180_ _0049_ vdd vdd vss vss gf180mcu_fd_sc_mcu7t5v0__clkbuf_1
XANTENNA__7605__I1 net33 vdd vdd vss vss gf180mcu_fd_sc_mcu7t5v0__antenna
XANTENNA__6569__A1 _2000_ vdd vdd vss vss gf180mcu_fd_sc_mcu7t5v0__antenna
XANTENNA__5758__B _2177_ vdd vdd vss vss gf180mcu_fd_sc_mcu7t5v0__antenna
XTAP_TAPCELL_ROW_84_1427 vdd vss gf180mcu_fd_sc_mcu7t5v0__filltie
XFILLER_0_48_902 vdd vdd vss vss gf180mcu_fd_sc_mcu7t5v0__fill_2
XFILLER_0_137_609 vdd vdd vss vss gf180mcu_fd_sc_mcu7t5v0__fill_2
X_5975_ _2288_ _2577_ _2200_ _2578_ vdd vdd vss vss gf180mcu_fd_sc_mcu7t5v0__aoi21_1
X_4926_ _1689_ _0442_ vdd vdd vss vss gf180mcu_fd_sc_mcu7t5v0__clkbuf_1
X_7714_ _0014_ clknet_leaf_137_clk_i memory\[19\]\[1\] vdd vdd vss vss gf180mcu_fd_sc_mcu7t5v0__dffq_1
XANTENNA__5477__C _2043_ vdd vdd vss vss gf180mcu_fd_sc_mcu7t5v0__antenna
XFILLER_0_19_136 vdd vdd vss vss gf180mcu_fd_sc_mcu7t5v0__fill_2
X_8694_ _0994_ clknet_leaf_191_clk_i memory\[5\]\[21\] vdd vdd vss vss gf180mcu_fd_sc_mcu7t5v0__dffq_1
XFILLER_0_129_193 vdd vdd vss vss gf180mcu_fd_sc_mcu7t5v0__fill_2
X_4857_ _1267_ memory\[25\]\[13\] _1649_ _1653_ vdd vdd vss vss gf180mcu_fd_sc_mcu7t5v0__mux2_2
XFILLER_0_75_776 vdd vdd vss vss gf180mcu_fd_sc_mcu7t5v0__fill_2
XFILLER_0_63_916 vdd vdd vss vss gf180mcu_fd_sc_mcu7t5v0__fill_2
XFILLER_0_7_531 vdd vdd vss vss gf180mcu_fd_sc_mcu7t5v0__fill_2
X_7645_ memory\[6\]\[24\] net22 _3817_ _3822_ vdd vdd vss vss gf180mcu_fd_sc_mcu7t5v0__mux2_2