* NGSPICE file created from ram_6x64.ext - technology: gf180mcuD

* Black-box entry subcircuit for gf180mcu_fd_sc_mcu7t5v0__nor2_4 abstract view
.subckt gf180mcu_fd_sc_mcu7t5v0__nor2_4 A1 A2 ZN VDD VNW VPW VSS
.ends

* Black-box entry subcircuit for gf180mcu_fd_sc_mcu7t5v0__clkbuf_1 abstract view
.subckt gf180mcu_fd_sc_mcu7t5v0__clkbuf_1 I Z VDD VNW VPW VSS
.ends

* Black-box entry subcircuit for gf180mcu_fd_sc_mcu7t5v0__fill_1 abstract view
.subckt gf180mcu_fd_sc_mcu7t5v0__fill_1 VDD VNW VPW VSS
.ends

* Black-box entry subcircuit for gf180mcu_fd_sc_mcu7t5v0__fill_2 abstract view
.subckt gf180mcu_fd_sc_mcu7t5v0__fill_2 VDD VNW VPW VSS
.ends

* Black-box entry subcircuit for gf180mcu_fd_sc_mcu7t5v0__filltie abstract view
.subckt gf180mcu_fd_sc_mcu7t5v0__filltie VDD VSS
.ends

* Black-box entry subcircuit for gf180mcu_fd_sc_mcu7t5v0__fillcap_4 abstract view
.subckt gf180mcu_fd_sc_mcu7t5v0__fillcap_4 VDD VNW VPW VSS
.ends

* Black-box entry subcircuit for gf180mcu_fd_sc_mcu7t5v0__antenna abstract view
.subckt gf180mcu_fd_sc_mcu7t5v0__antenna I VDD VNW VPW VSS
.ends

* Black-box entry subcircuit for gf180mcu_fd_sc_mcu7t5v0__mux2_2 abstract view
.subckt gf180mcu_fd_sc_mcu7t5v0__mux2_2 I0 I1 S Z VDD VNW VPW VSS
.ends

* Black-box entry subcircuit for gf180mcu_fd_sc_mcu7t5v0__fillcap_32 abstract view
.subckt gf180mcu_fd_sc_mcu7t5v0__fillcap_32 VDD VNW VPW VSS
.ends

* Black-box entry subcircuit for gf180mcu_fd_sc_mcu7t5v0__fillcap_8 abstract view
.subckt gf180mcu_fd_sc_mcu7t5v0__fillcap_8 VDD VNW VPW VSS
.ends

* Black-box entry subcircuit for gf180mcu_fd_sc_mcu7t5v0__nor2_1 abstract view
.subckt gf180mcu_fd_sc_mcu7t5v0__nor2_1 A1 A2 ZN VDD VNW VPW VSS
.ends

* Black-box entry subcircuit for gf180mcu_fd_sc_mcu7t5v0__dffq_1 abstract view
.subckt gf180mcu_fd_sc_mcu7t5v0__dffq_1 D CLK Q VDD VNW VPW VSS
.ends

* Black-box entry subcircuit for gf180mcu_fd_sc_mcu7t5v0__clkbuf_8 abstract view
.subckt gf180mcu_fd_sc_mcu7t5v0__clkbuf_8 I Z VDD VNW VPW VSS
.ends

* Black-box entry subcircuit for gf180mcu_fd_sc_mcu7t5v0__nor3_1 abstract view
.subckt gf180mcu_fd_sc_mcu7t5v0__nor3_1 A1 A2 A3 ZN VDD VNW VPW VSS
.ends

* Black-box entry subcircuit for gf180mcu_fd_sc_mcu7t5v0__clkinv_1 abstract view
.subckt gf180mcu_fd_sc_mcu7t5v0__clkinv_1 I ZN VDD VNW VPW VSS
.ends

* Black-box entry subcircuit for gf180mcu_fd_sc_mcu7t5v0__mux4_2 abstract view
.subckt gf180mcu_fd_sc_mcu7t5v0__mux4_2 I0 I1 I2 I3 S0 S1 Z VDD VNW VPW VSS
.ends

* Black-box entry subcircuit for gf180mcu_fd_sc_mcu7t5v0__fillcap_64 abstract view
.subckt gf180mcu_fd_sc_mcu7t5v0__fillcap_64 VDD VNW VPW VSS
.ends

* Black-box entry subcircuit for gf180mcu_fd_sc_mcu7t5v0__mux4_1 abstract view
.subckt gf180mcu_fd_sc_mcu7t5v0__mux4_1 I0 I1 I2 I3 S0 S1 Z VDD VNW VPW VSS
.ends

* Black-box entry subcircuit for gf180mcu_fd_sc_mcu7t5v0__clkbuf_16 abstract view
.subckt gf180mcu_fd_sc_mcu7t5v0__clkbuf_16 I Z VDD VNW VPW VSS
.ends

* Black-box entry subcircuit for gf180mcu_fd_sc_mcu7t5v0__endcap abstract view
.subckt gf180mcu_fd_sc_mcu7t5v0__endcap VDD VSS
.ends

* Black-box entry subcircuit for gf180mcu_fd_sc_mcu7t5v0__nor3_2 abstract view
.subckt gf180mcu_fd_sc_mcu7t5v0__nor3_2 A1 A2 A3 ZN VDD VNW VPW VSS
.ends

* Black-box entry subcircuit for gf180mcu_fd_sc_mcu7t5v0__fillcap_16 abstract view
.subckt gf180mcu_fd_sc_mcu7t5v0__fillcap_16 VDD VNW VPW VSS
.ends

* Black-box entry subcircuit for gf180mcu_fd_sc_mcu7t5v0__aoi211_2 abstract view
.subckt gf180mcu_fd_sc_mcu7t5v0__aoi211_2 A1 A2 B C ZN VDD VNW VPW VSS
.ends

* Black-box entry subcircuit for gf180mcu_fd_sc_mcu7t5v0__buf_4 abstract view
.subckt gf180mcu_fd_sc_mcu7t5v0__buf_4 I Z VDD VNW VPW VSS
.ends

* Black-box entry subcircuit for gf180mcu_fd_sc_mcu7t5v0__nand2_4 abstract view
.subckt gf180mcu_fd_sc_mcu7t5v0__nand2_4 A1 A2 ZN VDD VNW VPW VSS
.ends

* Black-box entry subcircuit for gf180mcu_fd_sc_mcu7t5v0__aoi211_4 abstract view
.subckt gf180mcu_fd_sc_mcu7t5v0__aoi211_4 A1 A2 B C ZN VDD VNW VPW VSS
.ends

* Black-box entry subcircuit for gf180mcu_fd_sc_mcu7t5v0__clkbuf_12 abstract view
.subckt gf180mcu_fd_sc_mcu7t5v0__clkbuf_12 I Z VDD VNW VPW VSS
.ends

* Black-box entry subcircuit for gf180mcu_fd_sc_mcu7t5v0__oai21_2 abstract view
.subckt gf180mcu_fd_sc_mcu7t5v0__oai21_2 A1 A2 B ZN VDD VNW VPW VSS
.ends

* Black-box entry subcircuit for gf180mcu_fd_sc_mcu7t5v0__oai21_1 abstract view
.subckt gf180mcu_fd_sc_mcu7t5v0__oai21_1 A1 A2 B ZN VDD VNW VPW VSS
.ends

* Black-box entry subcircuit for gf180mcu_fd_sc_mcu7t5v0__buf_8 abstract view
.subckt gf180mcu_fd_sc_mcu7t5v0__buf_8 I Z VDD VNW VPW VSS
.ends

* Black-box entry subcircuit for gf180mcu_fd_sc_mcu7t5v0__buf_3 abstract view
.subckt gf180mcu_fd_sc_mcu7t5v0__buf_3 I Z VDD VNW VPW VSS
.ends

* Black-box entry subcircuit for gf180mcu_fd_sc_mcu7t5v0__clkbuf_3 abstract view
.subckt gf180mcu_fd_sc_mcu7t5v0__clkbuf_3 I Z VDD VNW VPW VSS
.ends

* Black-box entry subcircuit for gf180mcu_fd_sc_mcu7t5v0__nor2_2 abstract view
.subckt gf180mcu_fd_sc_mcu7t5v0__nor2_2 A1 A2 ZN VDD VNW VPW VSS
.ends

* Black-box entry subcircuit for gf180mcu_fd_sc_mcu7t5v0__clkbuf_4 abstract view
.subckt gf180mcu_fd_sc_mcu7t5v0__clkbuf_4 I Z VDD VNW VPW VSS
.ends

* Black-box entry subcircuit for gf180mcu_fd_sc_mcu7t5v0__or2_4 abstract view
.subckt gf180mcu_fd_sc_mcu7t5v0__or2_4 A1 A2 Z VDD VNW VPW VSS
.ends

* Black-box entry subcircuit for gf180mcu_fd_sc_mcu7t5v0__inv_1 abstract view
.subckt gf180mcu_fd_sc_mcu7t5v0__inv_1 I ZN VDD VNW VPW VSS
.ends

* Black-box entry subcircuit for gf180mcu_fd_sc_mcu7t5v0__nor3_4 abstract view
.subckt gf180mcu_fd_sc_mcu7t5v0__nor3_4 A1 A2 A3 ZN VDD VNW VPW VSS
.ends

* Black-box entry subcircuit for gf180mcu_fd_sc_mcu7t5v0__inv_4 abstract view
.subckt gf180mcu_fd_sc_mcu7t5v0__inv_4 I ZN VDD VNW VPW VSS
.ends

* Black-box entry subcircuit for gf180mcu_fd_sc_mcu7t5v0__aoi211_1 abstract view
.subckt gf180mcu_fd_sc_mcu7t5v0__aoi211_1 A1 A2 B C ZN VDD VNW VPW VSS
.ends

* Black-box entry subcircuit for gf180mcu_fd_sc_mcu7t5v0__nor4_2 abstract view
.subckt gf180mcu_fd_sc_mcu7t5v0__nor4_2 A1 A2 A3 A4 ZN VDD VNW VPW VSS
.ends

* Black-box entry subcircuit for gf180mcu_fd_sc_mcu7t5v0__dffq_2 abstract view
.subckt gf180mcu_fd_sc_mcu7t5v0__dffq_2 D CLK Q VDD VNW VPW VSS
.ends

* Black-box entry subcircuit for gf180mcu_fd_sc_mcu7t5v0__nor4_1 abstract view
.subckt gf180mcu_fd_sc_mcu7t5v0__nor4_1 A1 A2 A3 A4 ZN VDD VNW VPW VSS
.ends

* Black-box entry subcircuit for gf180mcu_fd_sc_mcu7t5v0__and2_1 abstract view
.subckt gf180mcu_fd_sc_mcu7t5v0__and2_1 A1 A2 Z VDD VNW VPW VSS
.ends

* Black-box entry subcircuit for gf180mcu_fd_sc_mcu7t5v0__mux4_4 abstract view
.subckt gf180mcu_fd_sc_mcu7t5v0__mux4_4 I0 I1 I2 I3 S0 S1 Z VDD VNW VPW VSS
.ends

* Black-box entry subcircuit for gf180mcu_fd_sc_mcu7t5v0__clkinv_2 abstract view
.subckt gf180mcu_fd_sc_mcu7t5v0__clkinv_2 I ZN VDD VNW VPW VSS
.ends

* Black-box entry subcircuit for gf180mcu_fd_sc_mcu7t5v0__nand2_2 abstract view
.subckt gf180mcu_fd_sc_mcu7t5v0__nand2_2 A1 A2 ZN VDD VNW VPW VSS
.ends

* Black-box entry subcircuit for gf180mcu_fd_sc_mcu7t5v0__buf_2 abstract view
.subckt gf180mcu_fd_sc_mcu7t5v0__buf_2 I Z VDD VNW VPW VSS
.ends

* Black-box entry subcircuit for gf180mcu_fd_sc_mcu7t5v0__clkinv_4 abstract view
.subckt gf180mcu_fd_sc_mcu7t5v0__clkinv_4 I ZN VDD VNW VPW VSS
.ends

* Black-box entry subcircuit for gf180mcu_fd_sc_mcu7t5v0__clkbuf_2 abstract view
.subckt gf180mcu_fd_sc_mcu7t5v0__clkbuf_2 I Z VDD VNW VPW VSS
.ends

* Black-box entry subcircuit for gf180mcu_fd_sc_mcu7t5v0__buf_1 abstract view
.subckt gf180mcu_fd_sc_mcu7t5v0__buf_1 I Z VDD VNW VPW VSS
.ends

* Black-box entry subcircuit for gf180mcu_fd_sc_mcu7t5v0__buf_12 abstract view
.subckt gf180mcu_fd_sc_mcu7t5v0__buf_12 I Z VDD VNW VPW VSS
.ends

.subckt ram_6x64 address_i[0] address_i[1] address_i[2] address_i[3] address_i[4]
+ address_i[5] clk_i data_i[0] data_i[10] data_i[11] data_i[12] data_i[13] data_i[14]
+ data_i[15] data_i[16] data_i[17] data_i[18] data_i[19] data_i[1] data_i[20] data_i[21]
+ data_i[22] data_i[23] data_i[24] data_i[25] data_i[26] data_i[27] data_i[28] data_i[29]
+ data_i[2] data_i[30] data_i[31] data_i[3] data_i[4] data_i[5] data_i[6] data_i[7]
+ data_i[8] data_i[9] data_o[0] data_o[10] data_o[11] data_o[12] data_o[13] data_o[14]
+ data_o[15] data_o[16] data_o[17] data_o[18] data_o[19] data_o[1] data_o[20] data_o[21]
+ data_o[22] data_o[23] data_o[24] data_o[25] data_o[26] data_o[27] data_o[28] data_o[29]
+ data_o[2] data_o[30] data_o[31] data_o[3] data_o[4] data_o[5] data_o[6] data_o[7]
+ data_o[8] data_o[9] vdd vss we_i
X_06883_ _03113_ _03114_ _03115_ vdd vdd vss vss gf180mcu_fd_sc_mcu7t5v0__nor2_4
X_09671_ _04699_ _01998_ vdd vdd vss vss gf180mcu_fd_sc_mcu7t5v0__clkbuf_1
XFILLER_0_158_1167 vdd vdd vss vss gf180mcu_fd_sc_mcu7t5v0__fill_1
XFILLER_0_20_1087 vdd vdd vss vss gf180mcu_fd_sc_mcu7t5v0__fill_2
X_08622_ _04114_ _01534_ vdd vdd vss vss gf180mcu_fd_sc_mcu7t5v0__clkbuf_1
XTAP_TAPCELL_ROW_85_2030 vdd vss gf180mcu_fd_sc_mcu7t5v0__filltie
XTAP_TAPCELL_ROW_85_2041 vdd vss gf180mcu_fd_sc_mcu7t5v0__filltie
XFILLER_0_171_1356 vdd vdd vss vss gf180mcu_fd_sc_mcu7t5v0__fillcap_4
X_08553_ _04077_ _01502_ vdd vdd vss vss gf180mcu_fd_sc_mcu7t5v0__clkbuf_1
XANTENNA__08334__I0 _03812_ vdd vdd vss vss gf180mcu_fd_sc_mcu7t5v0__antenna
XFILLER_0_89_494 vdd vdd vss vss gf180mcu_fd_sc_mcu7t5v0__fill_1
X_07504_ memory\[59\]\[9\] _03327_ _03493_ _03503_ vdd vdd vss vss gf180mcu_fd_sc_mcu7t5v0__mux2_2
XANTENNA__11094__A1 _03490_ vdd vdd vss vss gf180mcu_fd_sc_mcu7t5v0__antenna
X_08484_ _03758_ memory\[21\]\[3\] _04037_ _04041_ vdd vdd vss vss gf180mcu_fd_sc_mcu7t5v0__mux2_2
XFILLER_0_37_509 vdd vdd vss vss gf180mcu_fd_sc_mcu7t5v0__fill_2
XFILLER_0_49_369 vdd vdd vss vss gf180mcu_fd_sc_mcu7t5v0__fill_1
XANTENNA__10141__I0 _04606_ vdd vdd vss vss gf180mcu_fd_sc_mcu7t5v0__antenna
XFILLER_0_193_138 vdd vdd vss vss gf180mcu_fd_sc_mcu7t5v0__fillcap_32
XFILLER_0_175_842 vdd vdd vss vss gf180mcu_fd_sc_mcu7t5v0__fill_2
XFILLER_0_130_1031 vdd vdd vss vss gf180mcu_fd_sc_mcu7t5v0__fill_2
XFILLER_0_64_306 vdd vdd vss vss gf180mcu_fd_sc_mcu7t5v0__fill_1
X_07435_ _03465_ _00996_ vdd vdd vss vss gf180mcu_fd_sc_mcu7t5v0__clkbuf_1
XFILLER_0_58_881 vdd vdd vss vss gf180mcu_fd_sc_mcu7t5v0__fill_2
XFILLER_0_64_317 vdd vdd vss vss gf180mcu_fd_sc_mcu7t5v0__fillcap_4
XANTENNA__10249__I _03128_ vdd vdd vss vss gf180mcu_fd_sc_mcu7t5v0__antenna
XFILLER_0_9_455 vdd vdd vss vss gf180mcu_fd_sc_mcu7t5v0__fill_2
XANTENNA__12665__S _06728_ vdd vdd vss vss gf180mcu_fd_sc_mcu7t5v0__antenna
XFILLER_0_18_734 vdd vdd vss vss gf180mcu_fd_sc_mcu7t5v0__fill_1
XTAP_TAPCELL_ROW_21_813 vdd vss gf180mcu_fd_sc_mcu7t5v0__filltie
XTAP_TAPCELL_ROW_21_824 vdd vss gf180mcu_fd_sc_mcu7t5v0__filltie
X_07366_ _03427_ _00965_ vdd vdd vss vss gf180mcu_fd_sc_mcu7t5v0__clkbuf_1
XFILLER_0_165_1105 vdd vdd vss vss gf180mcu_fd_sc_mcu7t5v0__fill_2
XFILLER_0_72_350 vdd vdd vss vss gf180mcu_fd_sc_mcu7t5v0__fill_2
X_09105_ _04233_ memory\[2\]\[24\] _04380_ _04385_ vdd vdd vss vss gf180mcu_fd_sc_mcu7t5v0__mux2_2
XFILLER_0_66_1213 vdd vdd vss vss gf180mcu_fd_sc_mcu7t5v0__fill_2
XFILLER_0_33_737 vdd vdd vss vss gf180mcu_fd_sc_mcu7t5v0__fill_2
X_07297_ memory\[11\]\[10\] _03329_ _03390_ _03391_ vdd vdd vss vss gf180mcu_fd_sc_mcu7t5v0__mux2_2
XFILLER_0_66_1235 vdd vdd vss vss gf180mcu_fd_sc_mcu7t5v0__fill_2
XANTENNA__13218__S0 _02205_ vdd vdd vss vss gf180mcu_fd_sc_mcu7t5v0__antenna
XFILLER_0_14_940 vdd vdd vss vss gf180mcu_fd_sc_mcu7t5v0__fill_2
X_09036_ _04348_ _01714_ vdd vdd vss vss gf180mcu_fd_sc_mcu7t5v0__clkbuf_1
XANTENNA__09974__S _04861_ vdd vdd vss vss gf180mcu_fd_sc_mcu7t5v0__antenna
XFILLER_0_4_171 vdd vdd vss vss gf180mcu_fd_sc_mcu7t5v0__fillcap_4
XFILLER_0_14_984 vdd vdd vss vss gf180mcu_fd_sc_mcu7t5v0__fillcap_4
XFILLER_0_4_193 vdd vdd vss vss gf180mcu_fd_sc_mcu7t5v0__fillcap_8
XFILLER_0_103_669 vdd vdd vss vss gf180mcu_fd_sc_mcu7t5v0__fill_1
XANTENNA__10913__S _05374_ vdd vdd vss vss gf180mcu_fd_sc_mcu7t5v0__antenna
XFILLER_0_13_494 vdd vdd vss vss gf180mcu_fd_sc_mcu7t5v0__fill_1
XANTENNA__12441__S1 _06090_ vdd vdd vss vss gf180mcu_fd_sc_mcu7t5v0__antenna
XANTENNA__07494__S _03493_ vdd vdd vss vss gf180mcu_fd_sc_mcu7t5v0__antenna
XTAP_TAPCELL_ROW_57_1497 vdd vss gf180mcu_fd_sc_mcu7t5v0__filltie
XANTENNA__13509__B _05739_ vdd vdd vss vss gf180mcu_fd_sc_mcu7t5v0__antenna
XANTENNA__11808__I _03120_ vdd vdd vss vss gf180mcu_fd_sc_mcu7t5v0__antenna
X_09938_ _04842_ _00042_ vdd vdd vss vss gf180mcu_fd_sc_mcu7t5v0__clkbuf_1
XTAP_TAPCELL_ROW_142_3112 vdd vss gf180mcu_fd_sc_mcu7t5v0__filltie
XFILLER_0_99_203 vdd vdd vss vss gf180mcu_fd_sc_mcu7t5v0__fill_1
XTAP_TAPCELL_ROW_142_3123 vdd vss gf180mcu_fd_sc_mcu7t5v0__filltie
XFILLER_0_137_1207 vdd vdd vss vss gf180mcu_fd_sc_mcu7t5v0__fill_2
XFILLER_0_99_214 vdd vdd vss vss gf180mcu_fd_sc_mcu7t5v0__fill_1
X_09869_ _04606_ memory\[40\]\[15\] _04800_ _04806_ vdd vdd vss vss gf180mcu_fd_sc_mcu7t5v0__mux2_2
XANTENNA__08573__I0 _03779_ vdd vdd vss vss gf180mcu_fd_sc_mcu7t5v0__antenna
X_11900_ memory\[46\]\[5\] memory\[47\]\[5\] _05907_ _06111_ vdd vdd vss vss gf180mcu_fd_sc_mcu7t5v0__mux2_2
X_12880_ memory\[46\]\[19\] memory\[47\]\[19\] _06596_ _02279_ vdd vdd vss vss gf180mcu_fd_sc_mcu7t5v0__mux2_2
XFILLER_0_38_1348 vdd vdd vss vss gf180mcu_fd_sc_mcu7t5v0__fillcap_8
XANTENNA__09214__S _04441_ vdd vdd vss vss gf180mcu_fd_sc_mcu7t5v0__antenna
XTAP_TAPCELL_ROW_29_968 vdd vss gf180mcu_fd_sc_mcu7t5v0__filltie
X_11831_ _05741_ _06042_ _06043_ vdd vdd vss vss gf180mcu_fd_sc_mcu7t5v0__nor2_1
XANTENNA__12639__I _05693_ vdd vdd vss vss gf180mcu_fd_sc_mcu7t5v0__antenna
XANTENNA__11543__I _03117_ vdd vdd vss vss gf180mcu_fd_sc_mcu7t5v0__antenna
X_14550_ _01589_ clknet_leaf_82_clk_i memory\[24\]\[26\] vdd vdd vss vss gf180mcu_fd_sc_mcu7t5v0__dffq_1
X_11762_ memory\[46\]\[3\] memory\[47\]\[3\] _05907_ _05975_ vdd vdd vss vss gf180mcu_fd_sc_mcu7t5v0__mux2_2
XFILLER_0_138_522 vdd vdd vss vss gf180mcu_fd_sc_mcu7t5v0__fill_1
X_13501_ memory\[62\]\[29\] memory\[63\]\[29\] _02448_ _02890_ vdd vdd vss vss gf180mcu_fd_sc_mcu7t5v0__mux2_2
X_10713_ _05268_ _00391_ vdd vdd vss vss gf180mcu_fd_sc_mcu7t5v0__clkbuf_1
X_14481_ _01520_ clknet_leaf_103_clk_i memory\[22\]\[21\] vdd vdd vss vss gf180mcu_fd_sc_mcu7t5v0__dffq_1
XANTENNA__10683__I1 _03220_ vdd vdd vss vss gf180mcu_fd_sc_mcu7t5v0__antenna
XFILLER_0_113_1262 vdd vdd vss vss gf180mcu_fd_sc_mcu7t5v0__fill_2
XFILLER_0_165_352 vdd vdd vss vss gf180mcu_fd_sc_mcu7t5v0__fill_2
X_11693_ _05701_ _05907_ vdd vdd vss vss gf180mcu_fd_sc_mcu7t5v0__clkbuf_8
XFILLER_0_138_577 vdd vdd vss vss gf180mcu_fd_sc_mcu7t5v0__fill_1
XFILLER_0_181_823 vdd vdd vss vss gf180mcu_fd_sc_mcu7t5v0__fill_2
XFILLER_0_113_1295 vdd vdd vss vss gf180mcu_fd_sc_mcu7t5v0__fillcap_4
X_13432_ _02358_ _02815_ _02822_ _02823_ vdd vdd vss vss gf180mcu_fd_sc_mcu7t5v0__nor3_1
XFILLER_0_192_171 vdd vdd vss vss gf180mcu_fd_sc_mcu7t5v0__fillcap_4
X_10644_ memory\[51\]\[12\] _03162_ _05229_ _05232_ vdd vdd vss vss gf180mcu_fd_sc_mcu7t5v0__mux2_2
XANTENNA__12585__A1 _06717_ vdd vdd vss vss gf180mcu_fd_sc_mcu7t5v0__antenna
XFILLER_0_181_878 vdd vdd vss vss gf180mcu_fd_sc_mcu7t5v0__fill_1
X_13363_ _02754_ _02755_ vdd vdd vss vss gf180mcu_fd_sc_mcu7t5v0__clkinv_1
XFILLER_0_24_737 vdd vdd vss vss gf180mcu_fd_sc_mcu7t5v0__fillcap_8
XFILLER_0_23_214 vdd vdd vss vss gf180mcu_fd_sc_mcu7t5v0__fill_1
XFILLER_0_63_383 vdd vdd vss vss gf180mcu_fd_sc_mcu7t5v0__fill_1
X_10575_ _05031_ memory\[50\]\[12\] _05192_ _05195_ vdd vdd vss vss gf180mcu_fd_sc_mcu7t5v0__mux2_2
XTAP_TAPCELL_ROW_118_2660 vdd vss gf180mcu_fd_sc_mcu7t5v0__filltie
XFILLER_0_63_394 vdd vdd vss vss gf180mcu_fd_sc_mcu7t5v0__fill_2
XFILLER_0_140_208 vdd vdd vss vss gf180mcu_fd_sc_mcu7t5v0__fill_2
XFILLER_0_107_986 vdd vdd vss vss gf180mcu_fd_sc_mcu7t5v0__fill_2
X_15102_ _00061_ clknet_leaf_440_clk_i memory\[42\]\[2\] vdd vdd vss vss gf180mcu_fd_sc_mcu7t5v0__dffq_1
XANTENNA__09884__S _04811_ vdd vdd vss vss gf180mcu_fd_sc_mcu7t5v0__antenna
X_12314_ memory\[8\]\[11\] memory\[9\]\[11\] memory\[10\]\[11\] memory\[11\]\[11\]
+ _05893_ _06032_ _06519_ vdd vdd vss vss gf180mcu_fd_sc_mcu7t5v0__mux4_2
XFILLER_0_134_794 vdd vdd vss vss gf180mcu_fd_sc_mcu7t5v0__fill_2
XFILLER_0_133_271 vdd vdd vss vss gf180mcu_fd_sc_mcu7t5v0__fill_1
X_13294_ memory\[30\]\[25\] memory\[31\]\[25\] _02084_ _02687_ vdd vdd vss vss gf180mcu_fd_sc_mcu7t5v0__mux2_2
XFILLER_0_133_282 vdd vdd vss vss gf180mcu_fd_sc_mcu7t5v0__fillcap_4
XFILLER_0_133_293 vdd vdd vss vss gf180mcu_fd_sc_mcu7t5v0__fill_2
XFILLER_0_146_1093 vdd vdd vss vss gf180mcu_fd_sc_mcu7t5v0__fill_2
X_15033_ _02072_ clknet_leaf_55_clk_i memory\[3\]\[29\] vdd vdd vss vss gf180mcu_fd_sc_mcu7t5v0__dffq_1
XFILLER_0_107_1044 vdd vdd vss vss gf180mcu_fd_sc_mcu7t5v0__fill_2
XANTENNA__10823__S _05326_ vdd vdd vss vss gf180mcu_fd_sc_mcu7t5v0__antenna
X_12245_ memory\[38\]\[10\] memory\[39\]\[10\] _06039_ _06451_ vdd vdd vss vss gf180mcu_fd_sc_mcu7t5v0__mux2_2
XTAP_TAPCELL_ROW_114_2579 vdd vss gf180mcu_fd_sc_mcu7t5v0__filltie
XFILLER_0_20_943 vdd vdd vss vss gf180mcu_fd_sc_mcu7t5v0__fill_2
XANTENNA__10199__I0 _04595_ vdd vdd vss vss gf180mcu_fd_sc_mcu7t5v0__antenna
XFILLER_0_48_37 vdd vdd vss vss gf180mcu_fd_sc_mcu7t5v0__fillcap_64
X_12176_ memory\[32\]\[9\] memory\[33\]\[9\] memory\[34\]\[9\] memory\[35\]\[9\] _06314_
+ _05743_ _06383_ vdd vdd vss vss gf180mcu_fd_sc_mcu7t5v0__mux4_1
XFILLER_0_120_1211 vdd vdd vss vss gf180mcu_fd_sc_mcu7t5v0__fill_2
X_11127_ _03340_ memory\[58\]\[15\] _05482_ _05488_ vdd vdd vss vss gf180mcu_fd_sc_mcu7t5v0__mux2_2
XFILLER_0_120_1244 vdd vdd vss vss gf180mcu_fd_sc_mcu7t5v0__fill_1
X_11058_ _05451_ _00553_ vdd vdd vss vss gf180mcu_fd_sc_mcu7t5v0__clkbuf_1
XFILLER_0_120_1288 vdd vdd vss vss gf180mcu_fd_sc_mcu7t5v0__fill_2
XFILLER_0_189_912 vdd vdd vss vss gf180mcu_fd_sc_mcu7t5v0__fillcap_64
XANTENNA__08564__I0 _03770_ vdd vdd vss vss gf180mcu_fd_sc_mcu7t5v0__antenna
X_10009_ _04610_ memory\[42\]\[17\] _04872_ _04880_ vdd vdd vss vss gf180mcu_fd_sc_mcu7t5v0__mux2_2
XFILLER_0_64_69 vdd vdd vss vss gf180mcu_fd_sc_mcu7t5v0__fillcap_8
XANTENNA__10371__I0 _05031_ vdd vdd vss vss gf180mcu_fd_sc_mcu7t5v0__antenna
XFILLER_0_91_1328 vdd vdd vss vss gf180mcu_fd_sc_mcu7t5v0__fill_2
X_14817_ _01856_ clknet_leaf_426_clk_i memory\[33\]\[5\] vdd vdd vss vss gf180mcu_fd_sc_mcu7t5v0__dffq_1
XANTENNA__13154__B _06866_ vdd vdd vss vss gf180mcu_fd_sc_mcu7t5v0__antenna
XANTENNA__12549__I _05701_ vdd vdd vss vss gf180mcu_fd_sc_mcu7t5v0__antenna
X_15797_ _00756_ clknet_leaf_58_clk_i net57 vdd vdd vss vss gf180mcu_fd_sc_mcu7t5v0__dffq_1
XFILLER_0_118_1173 vdd vdd vss vss gf180mcu_fd_sc_mcu7t5v0__fill_2
XANTENNA__08316__I0 _03793_ vdd vdd vss vss gf180mcu_fd_sc_mcu7t5v0__antenna
XFILLER_0_58_111 vdd vdd vss vss gf180mcu_fd_sc_mcu7t5v0__fill_1
XFILLER_0_129_500 vdd vdd vss vss gf180mcu_fd_sc_mcu7t5v0__fill_2
XFILLER_0_129_511 vdd vdd vss vss gf180mcu_fd_sc_mcu7t5v0__fill_2
X_14748_ _01787_ clknet_leaf_391_clk_i memory\[31\]\[0\] vdd vdd vss vss gf180mcu_fd_sc_mcu7t5v0__dffq_1
XFILLER_0_169_691 vdd vdd vss vss gf180mcu_fd_sc_mcu7t5v0__fill_2
XANTENNA__08963__S _04308_ vdd vdd vss vss gf180mcu_fd_sc_mcu7t5v0__antenna
XFILLER_0_153_1097 vdd vdd vss vss gf180mcu_fd_sc_mcu7t5v0__fill_2
XFILLER_0_50_1014 vdd vdd vss vss gf180mcu_fd_sc_mcu7t5v0__fill_1
XTAP_TAPCELL_ROW_177_3775 vdd vss gf180mcu_fd_sc_mcu7t5v0__filltie
XFILLER_0_157_842 vdd vdd vss vss gf180mcu_fd_sc_mcu7t5v0__fill_2
XFILLER_0_54_1183 vdd vdd vss vss gf180mcu_fd_sc_mcu7t5v0__fill_2
XTAP_TAPCELL_ROW_177_3786 vdd vss gf180mcu_fd_sc_mcu7t5v0__filltie
XFILLER_0_104_31 vdd vdd vss vss gf180mcu_fd_sc_mcu7t5v0__fillcap_4
XANTENNA__12485__S _06273_ vdd vdd vss vss gf180mcu_fd_sc_mcu7t5v0__antenna
XFILLER_0_184_661 vdd vdd vss vss gf180mcu_fd_sc_mcu7t5v0__fill_2
X_14679_ _01718_ clknet_leaf_85_clk_i memory\[28\]\[27\] vdd vdd vss vss gf180mcu_fd_sc_mcu7t5v0__dffq_1
XFILLER_0_80_79 vdd vdd vss vss gf180mcu_fd_sc_mcu7t5v0__fill_2
XFILLER_0_15_1189 vdd vdd vss vss gf180mcu_fd_sc_mcu7t5v0__fill_1
XANTENNA__09858__I _04788_ vdd vdd vss vss gf180mcu_fd_sc_mcu7t5v0__antenna
X_07220_ memory\[39\]\[15\] _03340_ _03330_ _03341_ vdd vdd vss vss gf180mcu_fd_sc_mcu7t5v0__mux2_2
XTAP_TAPCELL_ROW_15_695 vdd vss gf180mcu_fd_sc_mcu7t5v0__filltie
XANTENNA__08619__I1 _03313_ vdd vdd vss vss gf180mcu_fd_sc_mcu7t5v0__antenna
XANTENNA_clkbuf_leaf_133_clk_i_I clknet_5_22__leaf_clk_i vdd vdd vss vss gf180mcu_fd_sc_mcu7t5v0__antenna
X_07151_ _03200_ memory\[13\]\[24\] _03290_ _03295_ vdd vdd vss vss gf180mcu_fd_sc_mcu7t5v0__mux2_2
XFILLER_0_27_597 vdd vdd vss vss gf180mcu_fd_sc_mcu7t5v0__fill_1
XFILLER_0_70_832 vdd vdd vss vss gf180mcu_fd_sc_mcu7t5v0__fill_2
XFILLER_0_171_388 vdd vdd vss vss gf180mcu_fd_sc_mcu7t5v0__fill_2
XFILLER_0_42_545 vdd vdd vss vss gf180mcu_fd_sc_mcu7t5v0__fill_1
XFILLER_0_14_247 vdd vdd vss vss gf180mcu_fd_sc_mcu7t5v0__fill_2
X_07082_ _03203_ memory\[16\]\[25\] _03251_ _03257_ vdd vdd vss vss gf180mcu_fd_sc_mcu7t5v0__mux2_2
XFILLER_0_129_1280 vdd vdd vss vss gf180mcu_fd_sc_mcu7t5v0__fill_2
XFILLER_0_70_887 vdd vdd vss vss gf180mcu_fd_sc_mcu7t5v0__fill_2
XFILLER_0_125_1122 vdd vdd vss vss gf180mcu_fd_sc_mcu7t5v0__fill_2
XFILLER_0_124_293 vdd vdd vss vss gf180mcu_fd_sc_mcu7t5v0__fill_1
XANTENNA__12328__A1 _06322_ vdd vdd vss vss gf180mcu_fd_sc_mcu7t5v0__antenna
XFILLER_0_113_978 vdd vdd vss vss gf180mcu_fd_sc_mcu7t5v0__fill_2
XFILLER_0_2_664 vdd vdd vss vss gf180mcu_fd_sc_mcu7t5v0__fill_1
XANTENNA__10733__S _05276_ vdd vdd vss vss gf180mcu_fd_sc_mcu7t5v0__antenna
XFILLER_0_26_1241 vdd vdd vss vss gf180mcu_fd_sc_mcu7t5v0__fill_2
XTAP_TAPCELL_ROW_39_1150 vdd vss gf180mcu_fd_sc_mcu7t5v0__filltie
XANTENNA__07055__I0 _03163_ vdd vdd vss vss gf180mcu_fd_sc_mcu7t5v0__antenna
XTAP_TAPCELL_ROW_39_1161 vdd vss gf180mcu_fd_sc_mcu7t5v0__filltie
XFILLER_0_100_639 vdd vdd vss vss gf180mcu_fd_sc_mcu7t5v0__fill_2
XFILLER_0_22_1138 vdd vdd vss vss gf180mcu_fd_sc_mcu7t5v0__fill_2
XFILLER_0_129_72 vdd vdd vss vss gf180mcu_fd_sc_mcu7t5v0__fill_2
X_07984_ _03762_ memory\[12\]\[5\] _03752_ _03763_ vdd vdd vss vss gf180mcu_fd_sc_mcu7t5v0__mux2_2
XANTENNA__08002__I _03159_ vdd vdd vss vss gf180mcu_fd_sc_mcu7t5v0__antenna
X_09723_ _04727_ _02022_ vdd vdd vss vss gf180mcu_fd_sc_mcu7t5v0__clkbuf_1
X_06935_ _03125_ _03157_ vdd vdd vss vss gf180mcu_fd_sc_mcu7t5v0__clkbuf_8
XANTENNA__12500__A1 _06142_ vdd vdd vss vss gf180mcu_fd_sc_mcu7t5v0__antenna
XANTENNA_clkbuf_leaf_58_clk_i_I clknet_5_17__leaf_clk_i vdd vdd vss vss gf180mcu_fd_sc_mcu7t5v0__antenna
X_09654_ _04598_ memory\[37\]\[11\] _04689_ _04691_ vdd vdd vss vss gf180mcu_fd_sc_mcu7t5v0__mux2_2
XFILLER_0_179_422 vdd vdd vss vss gf180mcu_fd_sc_mcu7t5v0__fill_2
XANTENNA__10362__I0 _05022_ vdd vdd vss vss gf180mcu_fd_sc_mcu7t5v0__antenna
X_08605_ _04104_ _01527_ vdd vdd vss vss gf180mcu_fd_sc_mcu7t5v0__clkbuf_1
XFILLER_0_179_455 vdd vdd vss vss gf180mcu_fd_sc_mcu7t5v0__fill_2
XTAP_TAPCELL_ROW_26_905 vdd vss gf180mcu_fd_sc_mcu7t5v0__filltie
XTAP_TAPCELL_ROW_26_916 vdd vss gf180mcu_fd_sc_mcu7t5v0__filltie
X_09585_ _04654_ _01957_ vdd vdd vss vss gf180mcu_fd_sc_mcu7t5v0__clkbuf_1
XANTENNA__08307__I0 _03785_ vdd vdd vss vss gf180mcu_fd_sc_mcu7t5v0__antenna
XFILLER_0_136_1273 vdd vdd vss vss gf180mcu_fd_sc_mcu7t5v0__fill_2
X_08536_ _03810_ memory\[21\]\[28\] _04059_ _04068_ vdd vdd vss vss gf180mcu_fd_sc_mcu7t5v0__mux2_2
XFILLER_0_148_820 vdd vdd vss vss gf180mcu_fd_sc_mcu7t5v0__fill_1
XANTENNA__10114__I0 _04579_ vdd vdd vss vss gf180mcu_fd_sc_mcu7t5v0__antenna
XFILLER_0_49_177 vdd vdd vss vss gf180mcu_fd_sc_mcu7t5v0__fill_2
XANTENNA__10665__I1 _03193_ vdd vdd vss vss gf180mcu_fd_sc_mcu7t5v0__antenna
X_08467_ _04031_ _01462_ vdd vdd vss vss gf180mcu_fd_sc_mcu7t5v0__clkbuf_1
XFILLER_0_147_352 vdd vdd vss vss gf180mcu_fd_sc_mcu7t5v0__fill_1
XANTENNA__10908__S _05363_ vdd vdd vss vss gf180mcu_fd_sc_mcu7t5v0__antenna
XFILLER_0_33_1278 vdd vdd vss vss gf180mcu_fd_sc_mcu7t5v0__fill_2
XFILLER_0_64_125 vdd vdd vss vss gf180mcu_fd_sc_mcu7t5v0__fill_2
XANTENNA__07530__I1 _03353_ vdd vdd vss vss gf180mcu_fd_sc_mcu7t5v0__antenna
XFILLER_0_9_263 vdd vdd vss vss gf180mcu_fd_sc_mcu7t5v0__fill_1
X_07418_ memory\[49\]\[1\] _03311_ _03455_ _03457_ vdd vdd vss vss gf180mcu_fd_sc_mcu7t5v0__mux2_2
X_08398_ _03808_ memory\[1\]\[27\] _03987_ _03995_ vdd vdd vss vss gf180mcu_fd_sc_mcu7t5v0__mux2_2
XFILLER_0_68_1319 vdd vdd vss vss gf180mcu_fd_sc_mcu7t5v0__fill_2
XFILLER_0_70_90 vdd vdd vss vss gf180mcu_fd_sc_mcu7t5v0__fill_2
XFILLER_0_18_597 vdd vdd vss vss gf180mcu_fd_sc_mcu7t5v0__fill_2
X_07349_ _03418_ _00957_ vdd vdd vss vss gf180mcu_fd_sc_mcu7t5v0__clkbuf_1
Xclkbuf_5_6__f_clk_i clknet_2_0_0_clk_i clknet_5_6__leaf_clk_i vdd vdd vss vss gf180mcu_fd_sc_mcu7t5v0__clkbuf_16
XTAP_TAPCELL_ROW_98_2276 vdd vss gf180mcu_fd_sc_mcu7t5v0__filltie
XFILLER_0_33_523 vdd vdd vss vss gf180mcu_fd_sc_mcu7t5v0__fill_1
XANTENNA__10707__I _05253_ vdd vdd vss vss gf180mcu_fd_sc_mcu7t5v0__antenna
XTAP_TAPCELL_ROW_98_2287 vdd vss gf180mcu_fd_sc_mcu7t5v0__filltie
XFILLER_0_150_517 vdd vdd vss vss gf180mcu_fd_sc_mcu7t5v0__fill_2
XFILLER_0_33_556 vdd vdd vss vss gf180mcu_fd_sc_mcu7t5v0__fill_2
XFILLER_0_72_191 vdd vdd vss vss gf180mcu_fd_sc_mcu7t5v0__fill_2
X_10360_ _05020_ memory\[47\]\[7\] _05073_ _05081_ vdd vdd vss vss gf180mcu_fd_sc_mcu7t5v0__mux2_2
XFILLER_0_6_992 vdd vdd vss vss gf180mcu_fd_sc_mcu7t5v0__fill_2
XFILLER_0_143_1200 vdd vdd vss vss gf180mcu_fd_sc_mcu7t5v0__fill_2
XFILLER_0_143_580 vdd vdd vss vss gf180mcu_fd_sc_mcu7t5v0__fill_2
XTAP_TAPCELL_ROW_59_1537 vdd vss gf180mcu_fd_sc_mcu7t5v0__filltie
XTAP_TAPCELL_ROW_59_1548 vdd vss gf180mcu_fd_sc_mcu7t5v0__filltie
XFILLER_0_103_422 vdd vdd vss vss gf180mcu_fd_sc_mcu7t5v0__fillcap_4
XPHY_EDGE_ROW_115_Left_309 vdd vss gf180mcu_fd_sc_mcu7t5v0__endcap
XFILLER_0_115_282 vdd vdd vss vss gf180mcu_fd_sc_mcu7t5v0__fill_2
XFILLER_0_33_589 vdd vdd vss vss gf180mcu_fd_sc_mcu7t5v0__fill_2
XFILLER_0_66_1087 vdd vdd vss vss gf180mcu_fd_sc_mcu7t5v0__fill_2
X_09019_ _04339_ _01706_ vdd vdd vss vss gf180mcu_fd_sc_mcu7t5v0__clkbuf_1
XFILLER_0_131_764 vdd vdd vss vss gf180mcu_fd_sc_mcu7t5v0__fill_2
X_10291_ _05036_ _00201_ vdd vdd vss vss gf180mcu_fd_sc_mcu7t5v0__clkbuf_1
XTAP_TAPCELL_ROW_76_1862 vdd vss gf180mcu_fd_sc_mcu7t5v0__filltie
XANTENNA__13611__S0 _05742_ vdd vdd vss vss gf180mcu_fd_sc_mcu7t5v0__antenna
XFILLER_0_104_1217 vdd vdd vss vss gf180mcu_fd_sc_mcu7t5v0__fillcap_8
XANTENNA__07046__I0 _03150_ vdd vdd vss vss gf180mcu_fd_sc_mcu7t5v0__antenna
X_12030_ _05699_ _06231_ _06238_ _06239_ vdd vdd vss vss gf180mcu_fd_sc_mcu7t5v0__nor3_2
XANTENNA__09209__S _04430_ vdd vdd vss vss gf180mcu_fd_sc_mcu7t5v0__antenna
XANTENNA__13239__B _02373_ vdd vdd vss vss gf180mcu_fd_sc_mcu7t5v0__antenna
XANTENNA_clkbuf_leaf_335_clk_i_I clknet_5_10__leaf_clk_i vdd vdd vss vss gf180mcu_fd_sc_mcu7t5v0__antenna
XANTENNA__11538__I _05701_ vdd vdd vss vss gf180mcu_fd_sc_mcu7t5v0__antenna
XANTENNA__07952__S _03733_ vdd vdd vss vss gf180mcu_fd_sc_mcu7t5v0__antenna
X_13981_ _01020_ clknet_leaf_333_clk_i memory\[59\]\[1\] vdd vdd vss vss gf180mcu_fd_sc_mcu7t5v0__dffq_1
XANTENNA__08546__I0 _03746_ vdd vdd vss vss gf180mcu_fd_sc_mcu7t5v0__antenna
XFILLER_0_38_1101 vdd vdd vss vss gf180mcu_fd_sc_mcu7t5v0__fill_2
X_15720_ _00679_ clknet_leaf_237_clk_i memory\[61\]\[12\] vdd vdd vss vss gf180mcu_fd_sc_mcu7t5v0__dffq_1
X_12932_ memory\[14\]\[20\] memory\[15\]\[20\] _02193_ _02330_ vdd vdd vss vss gf180mcu_fd_sc_mcu7t5v0__mux2_2
XFILLER_0_77_1172 vdd vdd vss vss gf180mcu_fd_sc_mcu7t5v0__fill_2
XPHY_EDGE_ROW_124_Left_318 vdd vss gf180mcu_fd_sc_mcu7t5v0__endcap
X_15651_ _00610_ clknet_leaf_312_clk_i memory\[5\]\[7\] vdd vdd vss vss gf180mcu_fd_sc_mcu7t5v0__dffq_1
X_12863_ memory\[12\]\[19\] memory\[13\]\[19\] _06714_ _02262_ vdd vdd vss vss gf180mcu_fd_sc_mcu7t5v0__mux2_2
XFILLER_0_158_606 vdd vdd vss vss gf180mcu_fd_sc_mcu7t5v0__fill_2
XFILLER_0_38_1167 vdd vdd vss vss gf180mcu_fd_sc_mcu7t5v0__fill_2
XANTENNA__13047__A2 _02413_ vdd vdd vss vss gf180mcu_fd_sc_mcu7t5v0__antenna
XANTENNA__11273__I _05542_ vdd vdd vss vss gf180mcu_fd_sc_mcu7t5v0__antenna
X_14602_ _01641_ clknet_leaf_186_clk_i memory\[26\]\[14\] vdd vdd vss vss gf180mcu_fd_sc_mcu7t5v0__dffq_1
X_11814_ memory\[12\]\[4\] memory\[13\]\[4\] _06025_ _06026_ vdd vdd vss vss gf180mcu_fd_sc_mcu7t5v0__mux2_2
XFILLER_0_69_976 vdd vdd vss vss gf180mcu_fd_sc_mcu7t5v0__fill_2
XANTENNA__08783__S _04204_ vdd vdd vss vss gf180mcu_fd_sc_mcu7t5v0__antenna
X_15582_ _00541_ clknet_leaf_326_clk_i memory\[57\]\[2\] vdd vdd vss vss gf180mcu_fd_sc_mcu7t5v0__dffq_1
XFILLER_0_90_1361 vdd vdd vss vss gf180mcu_fd_sc_mcu7t5v0__fill_1
X_12794_ memory\[14\]\[18\] memory\[15\]\[18\] _02193_ _02194_ vdd vdd vss vss gf180mcu_fd_sc_mcu7t5v0__mux2_2
XFILLER_0_150_1248 vdd vdd vss vss gf180mcu_fd_sc_mcu7t5v0__fill_2
XFILLER_0_96_784 vdd vdd vss vss gf180mcu_fd_sc_mcu7t5v0__fill_1
XFILLER_0_28_317 vdd vdd vss vss gf180mcu_fd_sc_mcu7t5v0__fill_2
X_14533_ _01572_ clknet_leaf_360_clk_i memory\[24\]\[9\] vdd vdd vss vss gf180mcu_fd_sc_mcu7t5v0__dffq_1
X_11745_ memory\[12\]\[3\] memory\[13\]\[3\] _05716_ _05958_ vdd vdd vss vss gf180mcu_fd_sc_mcu7t5v0__mux2_2
XANTENNA__10656__I1 _03180_ vdd vdd vss vss gf180mcu_fd_sc_mcu7t5v0__antenna
XFILLER_0_154_801 vdd vdd vss vss gf180mcu_fd_sc_mcu7t5v0__fill_2
XANTENNA__07521__I1 _03344_ vdd vdd vss vss gf180mcu_fd_sc_mcu7t5v0__antenna
XTAP_TAPCELL_ROW_155_3358 vdd vss gf180mcu_fd_sc_mcu7t5v0__filltie
XFILLER_0_126_8 vdd vdd vss vss gf180mcu_fd_sc_mcu7t5v0__fillcap_16
XTAP_TAPCELL_ROW_155_3369 vdd vss gf180mcu_fd_sc_mcu7t5v0__filltie
X_14464_ _01503_ clknet_leaf_352_clk_i memory\[22\]\[4\] vdd vdd vss vss gf180mcu_fd_sc_mcu7t5v0__dffq_1
X_11676_ _05889_ _05890_ vdd vdd vss vss gf180mcu_fd_sc_mcu7t5v0__clkinv_1
XFILLER_0_154_856 vdd vdd vss vss gf180mcu_fd_sc_mcu7t5v0__fill_2
XFILLER_0_3_1176 vdd vdd vss vss gf180mcu_fd_sc_mcu7t5v0__fill_2
XFILLER_0_83_489 vdd vdd vss vss gf180mcu_fd_sc_mcu7t5v0__fill_1
XTAP_TAPCELL_ROW_12_643 vdd vss gf180mcu_fd_sc_mcu7t5v0__filltie
XTAP_TAPCELL_ROW_12_654 vdd vss gf180mcu_fd_sc_mcu7t5v0__filltie
X_13415_ _02216_ _02805_ _02806_ vdd vdd vss vss gf180mcu_fd_sc_mcu7t5v0__nor2_1