* NGSPICE file created from titan.ext - technology: gf180mcuD

* Black-box entry subcircuit for gf180mcu_fd_sc_mcu7t5v0__nand2_1 abstract view
.subckt gf180mcu_fd_sc_mcu7t5v0__nand2_1 A1 A2 ZN VDD VNW VPW VSS
.ends

* Black-box entry subcircuit for gf180mcu_fd_sc_mcu7t5v0__filltie abstract view
.subckt gf180mcu_fd_sc_mcu7t5v0__filltie VDD VSS
.ends

* Black-box entry subcircuit for gf180mcu_fd_sc_mcu7t5v0__dffq_1 abstract view
.subckt gf180mcu_fd_sc_mcu7t5v0__dffq_1 D CLK Q VDD VNW VPW VSS
.ends

* Black-box entry subcircuit for gf180mcu_fd_sc_mcu7t5v0__nor2_1 abstract view
.subckt gf180mcu_fd_sc_mcu7t5v0__nor2_1 A1 A2 ZN VDD VNW VPW VSS
.ends

* Black-box entry subcircuit for gf180mcu_fd_sc_mcu7t5v0__antenna abstract view
.subckt gf180mcu_fd_sc_mcu7t5v0__antenna I VDD VNW VPW VSS
.ends

* Black-box entry subcircuit for gf180mcu_fd_sc_mcu7t5v0__and3_1 abstract view
.subckt gf180mcu_fd_sc_mcu7t5v0__and3_1 A1 A2 A3 Z VDD VNW VPW VSS
.ends

* Black-box entry subcircuit for gf180mcu_fd_sc_mcu7t5v0__buf_1 abstract view
.subckt gf180mcu_fd_sc_mcu7t5v0__buf_1 I Z VDD VNW VPW VSS
.ends

* Black-box entry subcircuit for gf180mcu_fd_sc_mcu7t5v0__xnor2_1 abstract view
.subckt gf180mcu_fd_sc_mcu7t5v0__xnor2_1 A1 A2 ZN VDD VNW VPW VSS
.ends

* Black-box entry subcircuit for gf180mcu_fd_sc_mcu7t5v0__fillcap_4 abstract view
.subckt gf180mcu_fd_sc_mcu7t5v0__fillcap_4 VDD VNW VPW VSS
.ends

* Black-box entry subcircuit for gf180mcu_fd_sc_mcu7t5v0__and2_1 abstract view
.subckt gf180mcu_fd_sc_mcu7t5v0__and2_1 A1 A2 Z VDD VNW VPW VSS
.ends

* Black-box entry subcircuit for gf180mcu_fd_sc_mcu7t5v0__fill_2 abstract view
.subckt gf180mcu_fd_sc_mcu7t5v0__fill_2 VDD VNW VPW VSS
.ends

* Black-box entry subcircuit for gf180mcu_fd_sc_mcu7t5v0__fillcap_8 abstract view
.subckt gf180mcu_fd_sc_mcu7t5v0__fillcap_8 VDD VNW VPW VSS
.ends

* Black-box entry subcircuit for gf180mcu_fd_sc_mcu7t5v0__clkinv_1 abstract view
.subckt gf180mcu_fd_sc_mcu7t5v0__clkinv_1 I ZN VDD VNW VPW VSS
.ends

* Black-box entry subcircuit for gf180mcu_fd_sc_mcu7t5v0__aoi21_2 abstract view
.subckt gf180mcu_fd_sc_mcu7t5v0__aoi21_2 A1 A2 B ZN VDD VNW VPW VSS
.ends

* Black-box entry subcircuit for gf180mcu_fd_sc_mcu7t5v0__fill_1 abstract view
.subckt gf180mcu_fd_sc_mcu7t5v0__fill_1 VDD VNW VPW VSS
.ends

* Black-box entry subcircuit for gf180mcu_fd_sc_mcu7t5v0__or2_1 abstract view
.subckt gf180mcu_fd_sc_mcu7t5v0__or2_1 A1 A2 Z VDD VNW VPW VSS
.ends

* Black-box entry subcircuit for gf180mcu_fd_sc_mcu7t5v0__clkbuf_2 abstract view
.subckt gf180mcu_fd_sc_mcu7t5v0__clkbuf_2 I Z VDD VNW VPW VSS
.ends

* Black-box entry subcircuit for gf180mcu_fd_sc_mcu7t5v0__aoi21_1 abstract view
.subckt gf180mcu_fd_sc_mcu7t5v0__aoi21_1 A1 A2 B ZN VDD VNW VPW VSS
.ends

* Black-box entry subcircuit for gf180mcu_fd_sc_mcu7t5v0__aoi21_4 abstract view
.subckt gf180mcu_fd_sc_mcu7t5v0__aoi21_4 A1 A2 B ZN VDD VNW VPW VSS
.ends

* Black-box entry subcircuit for gf180mcu_fd_sc_mcu7t5v0__xor2_1 abstract view
.subckt gf180mcu_fd_sc_mcu7t5v0__xor2_1 A1 A2 Z VDD VNW VPW VSS
.ends

* Black-box entry subcircuit for gf180mcu_fd_sc_mcu7t5v0__oai21_2 abstract view
.subckt gf180mcu_fd_sc_mcu7t5v0__oai21_2 A1 A2 B ZN VDD VNW VPW VSS
.ends

* Black-box entry subcircuit for gf180mcu_fd_sc_mcu7t5v0__clkbuf_1 abstract view
.subckt gf180mcu_fd_sc_mcu7t5v0__clkbuf_1 I Z VDD VNW VPW VSS
.ends

* Black-box entry subcircuit for gf180mcu_fd_sc_mcu7t5v0__buf_2 abstract view
.subckt gf180mcu_fd_sc_mcu7t5v0__buf_2 I Z VDD VNW VPW VSS
.ends

* Black-box entry subcircuit for gf180mcu_fd_sc_mcu7t5v0__oai21_1 abstract view
.subckt gf180mcu_fd_sc_mcu7t5v0__oai21_1 A1 A2 B ZN VDD VNW VPW VSS
.ends

* Black-box entry subcircuit for gf180mcu_fd_sc_mcu7t5v0__mux2_2 abstract view
.subckt gf180mcu_fd_sc_mcu7t5v0__mux2_2 I0 I1 S Z VDD VNW VPW VSS
.ends

* Black-box entry subcircuit for gf180mcu_fd_sc_mcu7t5v0__fillcap_16 abstract view
.subckt gf180mcu_fd_sc_mcu7t5v0__fillcap_16 VDD VNW VPW VSS
.ends

* Black-box entry subcircuit for gf180mcu_fd_sc_mcu7t5v0__oai22_2 abstract view
.subckt gf180mcu_fd_sc_mcu7t5v0__oai22_2 A1 A2 B1 B2 ZN VDD VNW VPW VSS
.ends

* Black-box entry subcircuit for gf180mcu_fd_sc_mcu7t5v0__oai31_2 abstract view
.subckt gf180mcu_fd_sc_mcu7t5v0__oai31_2 A1 A2 A3 B ZN VDD VNW VPW VSS
.ends

* Black-box entry subcircuit for gf180mcu_fd_sc_mcu7t5v0__mux4_4 abstract view
.subckt gf180mcu_fd_sc_mcu7t5v0__mux4_4 I0 I1 I2 I3 S0 S1 Z VDD VNW VPW VSS
.ends

* Black-box entry subcircuit for gf180mcu_fd_sc_mcu7t5v0__endcap abstract view
.subckt gf180mcu_fd_sc_mcu7t5v0__endcap VDD VSS
.ends

* Black-box entry subcircuit for gf180mcu_fd_sc_mcu7t5v0__fillcap_64 abstract view
.subckt gf180mcu_fd_sc_mcu7t5v0__fillcap_64 VDD VNW VPW VSS
.ends

* Black-box entry subcircuit for gf180mcu_fd_sc_mcu7t5v0__nand3_1 abstract view
.subckt gf180mcu_fd_sc_mcu7t5v0__nand3_1 A1 A2 A3 ZN VDD VNW VPW VSS
.ends

* Black-box entry subcircuit for gf180mcu_fd_sc_mcu7t5v0__nor2_2 abstract view
.subckt gf180mcu_fd_sc_mcu7t5v0__nor2_2 A1 A2 ZN VDD VNW VPW VSS
.ends

* Black-box entry subcircuit for gf180mcu_fd_sc_mcu7t5v0__fillcap_32 abstract view
.subckt gf180mcu_fd_sc_mcu7t5v0__fillcap_32 VDD VNW VPW VSS
.ends

* Black-box entry subcircuit for gf180mcu_fd_sc_mcu7t5v0__xor3_1 abstract view
.subckt gf180mcu_fd_sc_mcu7t5v0__xor3_1 A1 A2 A3 Z VDD VNW VPW VSS
.ends

* Black-box entry subcircuit for gf180mcu_fd_sc_mcu7t5v0__xor2_2 abstract view
.subckt gf180mcu_fd_sc_mcu7t5v0__xor2_2 A1 A2 Z VDD VNW VPW VSS
.ends

* Black-box entry subcircuit for gf180mcu_fd_sc_mcu7t5v0__oai32_1 abstract view
.subckt gf180mcu_fd_sc_mcu7t5v0__oai32_1 A1 A2 A3 B1 B2 ZN VDD VNW VPW VSS
.ends

* Black-box entry subcircuit for gf180mcu_fd_sc_mcu7t5v0__xnor3_1 abstract view
.subckt gf180mcu_fd_sc_mcu7t5v0__xnor3_1 A1 A2 A3 ZN VDD VNW VPW VSS
.ends

* Black-box entry subcircuit for gf180mcu_fd_sc_mcu7t5v0__or3_1 abstract view
.subckt gf180mcu_fd_sc_mcu7t5v0__or3_1 A1 A2 A3 Z VDD VNW VPW VSS
.ends

* Black-box entry subcircuit for gf180mcu_fd_sc_mcu7t5v0__dffq_2 abstract view
.subckt gf180mcu_fd_sc_mcu7t5v0__dffq_2 D CLK Q VDD VNW VPW VSS
.ends

* Black-box entry subcircuit for gf180mcu_fd_sc_mcu7t5v0__xnor2_2 abstract view
.subckt gf180mcu_fd_sc_mcu7t5v0__xnor2_2 A1 A2 ZN VDD VNW VPW VSS
.ends

* Black-box entry subcircuit for gf180mcu_fd_sc_mcu7t5v0__oai31_1 abstract view
.subckt gf180mcu_fd_sc_mcu7t5v0__oai31_1 A1 A2 A3 B ZN VDD VNW VPW VSS
.ends

* Black-box entry subcircuit for gf180mcu_fd_sc_mcu7t5v0__oai21_4 abstract view
.subckt gf180mcu_fd_sc_mcu7t5v0__oai21_4 A1 A2 B ZN VDD VNW VPW VSS
.ends

* Black-box entry subcircuit for gf180mcu_fd_sc_mcu7t5v0__and3_2 abstract view
.subckt gf180mcu_fd_sc_mcu7t5v0__and3_2 A1 A2 A3 Z VDD VNW VPW VSS
.ends

* Black-box entry subcircuit for gf180mcu_fd_sc_mcu7t5v0__aoi22_1 abstract view
.subckt gf180mcu_fd_sc_mcu7t5v0__aoi22_1 A1 A2 B1 B2 ZN VDD VNW VPW VSS
.ends

* Black-box entry subcircuit for gf180mcu_fd_sc_mcu7t5v0__nor3_2 abstract view
.subckt gf180mcu_fd_sc_mcu7t5v0__nor3_2 A1 A2 A3 ZN VDD VNW VPW VSS
.ends

* Black-box entry subcircuit for gf180mcu_fd_sc_mcu7t5v0__oai211_4 abstract view
.subckt gf180mcu_fd_sc_mcu7t5v0__oai211_4 A1 A2 B C ZN VDD VNW VPW VSS
.ends

* Black-box entry subcircuit for gf180mcu_fd_sc_mcu7t5v0__aoi22_2 abstract view
.subckt gf180mcu_fd_sc_mcu7t5v0__aoi22_2 A1 A2 B1 B2 ZN VDD VNW VPW VSS
.ends

* Black-box entry subcircuit for gf180mcu_fd_sc_mcu7t5v0__oai32_2 abstract view
.subckt gf180mcu_fd_sc_mcu7t5v0__oai32_2 A1 A2 A3 B1 B2 ZN VDD VNW VPW VSS
.ends

* Black-box entry subcircuit for gf180mcu_fd_sc_mcu7t5v0__inv_1 abstract view
.subckt gf180mcu_fd_sc_mcu7t5v0__inv_1 I ZN VDD VNW VPW VSS
.ends

* Black-box entry subcircuit for gf180mcu_fd_sc_mcu7t5v0__nand2_2 abstract view
.subckt gf180mcu_fd_sc_mcu7t5v0__nand2_2 A1 A2 ZN VDD VNW VPW VSS
.ends

* Black-box entry subcircuit for gf180mcu_fd_sc_mcu7t5v0__oai211_2 abstract view
.subckt gf180mcu_fd_sc_mcu7t5v0__oai211_2 A1 A2 B C ZN VDD VNW VPW VSS
.ends

* Black-box entry subcircuit for gf180mcu_fd_sc_mcu7t5v0__oai221_1 abstract view
.subckt gf180mcu_fd_sc_mcu7t5v0__oai221_1 A1 A2 B1 B2 C ZN VDD VNW VPW VSS
.ends

* Black-box entry subcircuit for gf180mcu_fd_sc_mcu7t5v0__nor3_1 abstract view
.subckt gf180mcu_fd_sc_mcu7t5v0__nor3_1 A1 A2 A3 ZN VDD VNW VPW VSS
.ends

* Black-box entry subcircuit for gf180mcu_fd_sc_mcu7t5v0__nand3_4 abstract view
.subckt gf180mcu_fd_sc_mcu7t5v0__nand3_4 A1 A2 A3 ZN VDD VNW VPW VSS
.ends

* Black-box entry subcircuit for gf180mcu_fd_sc_mcu7t5v0__nor4_4 abstract view
.subckt gf180mcu_fd_sc_mcu7t5v0__nor4_4 A1 A2 A3 A4 ZN VDD VNW VPW VSS
.ends

* Black-box entry subcircuit for gf180mcu_fd_sc_mcu7t5v0__oai221_2 abstract view
.subckt gf180mcu_fd_sc_mcu7t5v0__oai221_2 A1 A2 B1 B2 C ZN VDD VNW VPW VSS
.ends

* Black-box entry subcircuit for gf180mcu_fd_sc_mcu7t5v0__nand3_2 abstract view
.subckt gf180mcu_fd_sc_mcu7t5v0__nand3_2 A1 A2 A3 ZN VDD VNW VPW VSS
.ends

* Black-box entry subcircuit for gf180mcu_fd_sc_mcu7t5v0__aoi221_2 abstract view
.subckt gf180mcu_fd_sc_mcu7t5v0__aoi221_2 A1 A2 B1 B2 C ZN VDD VNW VPW VSS
.ends

* Black-box entry subcircuit for gf180mcu_fd_sc_mcu7t5v0__mux4_2 abstract view
.subckt gf180mcu_fd_sc_mcu7t5v0__mux4_2 I0 I1 I2 I3 S0 S1 Z VDD VNW VPW VSS
.ends

* Black-box entry subcircuit for gf180mcu_fd_sc_mcu7t5v0__xor3_2 abstract view
.subckt gf180mcu_fd_sc_mcu7t5v0__xor3_2 A1 A2 A3 Z VDD VNW VPW VSS
.ends

* Black-box entry subcircuit for gf180mcu_fd_sc_mcu7t5v0__oai211_1 abstract view
.subckt gf180mcu_fd_sc_mcu7t5v0__oai211_1 A1 A2 B C ZN VDD VNW VPW VSS
.ends

* Black-box entry subcircuit for gf180mcu_fd_sc_mcu7t5v0__mux4_1 abstract view
.subckt gf180mcu_fd_sc_mcu7t5v0__mux4_1 I0 I1 I2 I3 S0 S1 Z VDD VNW VPW VSS
.ends

* Black-box entry subcircuit for gf180mcu_fd_sc_mcu7t5v0__nand4_4 abstract view
.subckt gf180mcu_fd_sc_mcu7t5v0__nand4_4 A1 A2 A3 A4 ZN VDD VNW VPW VSS
.ends

* Black-box entry subcircuit for gf180mcu_fd_sc_mcu7t5v0__aoi211_1 abstract view
.subckt gf180mcu_fd_sc_mcu7t5v0__aoi211_1 A1 A2 B C ZN VDD VNW VPW VSS
.ends

* Black-box entry subcircuit for gf180mcu_fd_sc_mcu7t5v0__clkbuf_3 abstract view
.subckt gf180mcu_fd_sc_mcu7t5v0__clkbuf_3 I Z VDD VNW VPW VSS
.ends

* Black-box entry subcircuit for gf180mcu_fd_sc_mcu7t5v0__aoi211_4 abstract view
.subckt gf180mcu_fd_sc_mcu7t5v0__aoi211_4 A1 A2 B C ZN VDD VNW VPW VSS
.ends

* Black-box entry subcircuit for gf180mcu_fd_sc_mcu7t5v0__clkinv_2 abstract view
.subckt gf180mcu_fd_sc_mcu7t5v0__clkinv_2 I ZN VDD VNW VPW VSS
.ends

* Black-box entry subcircuit for gf180mcu_fd_sc_mcu7t5v0__oai31_4 abstract view
.subckt gf180mcu_fd_sc_mcu7t5v0__oai31_4 A1 A2 A3 B ZN VDD VNW VPW VSS
.ends

* Black-box entry subcircuit for gf180mcu_fd_sc_mcu7t5v0__and4_2 abstract view
.subckt gf180mcu_fd_sc_mcu7t5v0__and4_2 A1 A2 A3 A4 Z VDD VNW VPW VSS
.ends

* Black-box entry subcircuit for gf180mcu_fd_sc_mcu7t5v0__aoi221_4 abstract view
.subckt gf180mcu_fd_sc_mcu7t5v0__aoi221_4 A1 A2 B1 B2 C ZN VDD VNW VPW VSS
.ends

* Black-box entry subcircuit for gf180mcu_fd_sc_mcu7t5v0__and4_1 abstract view
.subckt gf180mcu_fd_sc_mcu7t5v0__and4_1 A1 A2 A3 A4 Z VDD VNW VPW VSS
.ends

* Black-box entry subcircuit for gf180mcu_fd_sc_mcu7t5v0__nand4_2 abstract view
.subckt gf180mcu_fd_sc_mcu7t5v0__nand4_2 A1 A2 A3 A4 ZN VDD VNW VPW VSS
.ends

* Black-box entry subcircuit for gf180mcu_fd_sc_mcu7t5v0__oai221_4 abstract view
.subckt gf180mcu_fd_sc_mcu7t5v0__oai221_4 A1 A2 B1 B2 C ZN VDD VNW VPW VSS
.ends

* Black-box entry subcircuit for gf180mcu_fd_sc_mcu7t5v0__xnor3_2 abstract view
.subckt gf180mcu_fd_sc_mcu7t5v0__xnor3_2 A1 A2 A3 ZN VDD VNW VPW VSS
.ends

* Black-box entry subcircuit for gf180mcu_fd_sc_mcu7t5v0__nor2_4 abstract view
.subckt gf180mcu_fd_sc_mcu7t5v0__nor2_4 A1 A2 ZN VDD VNW VPW VSS
.ends

* Black-box entry subcircuit for gf180mcu_fd_sc_mcu7t5v0__oai22_1 abstract view
.subckt gf180mcu_fd_sc_mcu7t5v0__oai22_1 A1 A2 B1 B2 ZN VDD VNW VPW VSS
.ends

* Black-box entry subcircuit for gf180mcu_fd_sc_mcu7t5v0__nor4_2 abstract view
.subckt gf180mcu_fd_sc_mcu7t5v0__nor4_2 A1 A2 A3 A4 ZN VDD VNW VPW VSS
.ends

* Black-box entry subcircuit for gf180mcu_fd_sc_mcu7t5v0__nor3_4 abstract view
.subckt gf180mcu_fd_sc_mcu7t5v0__nor3_4 A1 A2 A3 ZN VDD VNW VPW VSS
.ends

* Black-box entry subcircuit for gf180mcu_fd_sc_mcu7t5v0__or2_2 abstract view
.subckt gf180mcu_fd_sc_mcu7t5v0__or2_2 A1 A2 Z VDD VNW VPW VSS
.ends

* Black-box entry subcircuit for gf180mcu_fd_sc_mcu7t5v0__aoi211_2 abstract view
.subckt gf180mcu_fd_sc_mcu7t5v0__aoi211_2 A1 A2 B C ZN VDD VNW VPW VSS
.ends

* Black-box entry subcircuit for gf180mcu_fd_sc_mcu7t5v0__or4_1 abstract view
.subckt gf180mcu_fd_sc_mcu7t5v0__or4_1 A1 A2 A3 A4 Z VDD VNW VPW VSS
.ends

* Black-box entry subcircuit for gf180mcu_fd_sc_mcu7t5v0__and2_2 abstract view
.subckt gf180mcu_fd_sc_mcu7t5v0__and2_2 A1 A2 Z VDD VNW VPW VSS
.ends

* Black-box entry subcircuit for gf180mcu_fd_sc_mcu7t5v0__aoi22_4 abstract view
.subckt gf180mcu_fd_sc_mcu7t5v0__aoi22_4 A1 A2 B1 B2 ZN VDD VNW VPW VSS
.ends

* Black-box entry subcircuit for gf180mcu_fd_sc_mcu7t5v0__buf_3 abstract view
.subckt gf180mcu_fd_sc_mcu7t5v0__buf_3 I Z VDD VNW VPW VSS
.ends

* Black-box entry subcircuit for gf180mcu_fd_sc_mcu7t5v0__or3_2 abstract view
.subckt gf180mcu_fd_sc_mcu7t5v0__or3_2 A1 A2 A3 Z VDD VNW VPW VSS
.ends

* Black-box entry subcircuit for gf180mcu_fd_sc_mcu7t5v0__or4_2 abstract view
.subckt gf180mcu_fd_sc_mcu7t5v0__or4_2 A1 A2 A3 A4 Z VDD VNW VPW VSS
.ends

.subckt titan spi_clock_i spi_cs_i spi_pico_i spi_poci_o sys_clock_i vdd vss
X_05903_ _01561_ _01562_ _01563_ vdd vdd vss vss gf180mcu_fd_sc_mcu7t5v0__nand2_1
X_06883_ _02418_ _02461_ _02519_ vdd vdd vss vss gf180mcu_fd_sc_mcu7t5v0__nand2_1
XTAP_TAPCELL_ROW_126_1919 vdd vss gf180mcu_fd_sc_mcu7t5v0__filltie
X_09671_ _00258_ net260 ci_neuron.uut_simple_neuron.x3\[8\] vdd vdd vss vss gf180mcu_fd_sc_mcu7t5v0__dffq_1
X_05834_ _01162_ _01200_ _01496_ vdd vdd vss vss gf180mcu_fd_sc_mcu7t5v0__nor2_1
XANTENNA_fanout56_I net62 vdd vdd vss vss gf180mcu_fd_sc_mcu7t5v0__antenna
X_08622_ _03889_ _03879_ _04081_ _04097_ vdd vdd vss vss gf180mcu_fd_sc_mcu7t5v0__and3_1
X_05765_ _01427_ _01428_ vdd vdd vss vss gf180mcu_fd_sc_mcu7t5v0__buf_1
XTAP_TAPCELL_ROW_25_607 vdd vss gf180mcu_fd_sc_mcu7t5v0__filltie
X_08553_ ci_neuron.value_i\[15\] _04001_ _04039_ vdd vdd vss vss gf180mcu_fd_sc_mcu7t5v0__nand2_1
X_07504_ _03123_ _03130_ _03131_ vdd vdd vss vss gf180mcu_fd_sc_mcu7t5v0__xnor2_1
XTAP_TAPCELL_ROW_85_1384 vdd vss gf180mcu_fd_sc_mcu7t5v0__filltie
X_08484_ _03968_ _03980_ vdd vdd vss vss gf180mcu_fd_sc_mcu7t5v0__buf_1
X_07435_ _02979_ _03060_ _03062_ vdd vdd vss vss gf180mcu_fd_sc_mcu7t5v0__nand2_1
XFILLER_0_108_909 vdd vdd vss vss gf180mcu_fd_sc_mcu7t5v0__fillcap_4
X_05696_ _01252_ _01324_ _01360_ vdd vdd vss vss gf180mcu_fd_sc_mcu7t5v0__and2_1
XFILLER_0_64_317 vdd vdd vss vss gf180mcu_fd_sc_mcu7t5v0__fill_2
XFILLER_0_58_881 vdd vdd vss vss gf180mcu_fd_sc_mcu7t5v0__fillcap_8
XFILLER_0_9_422 vdd vdd vss vss gf180mcu_fd_sc_mcu7t5v0__fill_2
XFILLER_0_18_701 vdd vdd vss vss gf180mcu_fd_sc_mcu7t5v0__fill_2
X_07366_ _02962_ _02994_ vdd vdd vss vss gf180mcu_fd_sc_mcu7t5v0__clkinv_1
X_07297_ _02873_ _02877_ _02925_ _02926_ vdd vdd vss vss gf180mcu_fd_sc_mcu7t5v0__aoi21_2
X_06317_ ci_neuron.uut_simple_neuron.x3\[8\] _01964_ vdd vdd vss vss gf180mcu_fd_sc_mcu7t5v0__buf_1
XFILLER_0_17_277 vdd vdd vss vss gf180mcu_fd_sc_mcu7t5v0__fill_2
X_09105_ _04360_ _04445_ _04446_ vdd vdd vss vss gf180mcu_fd_sc_mcu7t5v0__nand2_1
XFILLER_0_33_715 vdd vdd vss vss gf180mcu_fd_sc_mcu7t5v0__fillcap_8
XFILLER_0_45_586 vdd vdd vss vss gf180mcu_fd_sc_mcu7t5v0__fill_2
XFILLER_0_115_474 vdd vdd vss vss gf180mcu_fd_sc_mcu7t5v0__fill_1
XFILLER_0_115_452 vdd vdd vss vss gf180mcu_fd_sc_mcu7t5v0__fillcap_4
X_06248_ _01877_ _01896_ _01897_ vdd vdd vss vss gf180mcu_fd_sc_mcu7t5v0__or2_1
XANTENNA__05076__A2 _00745_ vdd vdd vss vss gf180mcu_fd_sc_mcu7t5v0__antenna
XFILLER_0_60_545 vdd vdd vss vss gf180mcu_fd_sc_mcu7t5v0__fill_1
X_09036_ _04361_ _04383_ vdd vdd vss vss gf180mcu_fd_sc_mcu7t5v0__clkbuf_2
XFILLER_0_32_236 vdd vdd vss vss gf180mcu_fd_sc_mcu7t5v0__fill_2
XFILLER_0_102_135 vdd vdd vss vss gf180mcu_fd_sc_mcu7t5v0__fill_1
XFILLER_0_4_193 vdd vdd vss vss gf180mcu_fd_sc_mcu7t5v0__fillcap_4
X_06179_ _01827_ _01830_ _01831_ _01832_ vdd vdd vss vss gf180mcu_fd_sc_mcu7t5v0__aoi21_1
XFILLER_0_102_157 vdd vdd vss vss gf180mcu_fd_sc_mcu7t5v0__fillcap_4
XANTENNA__09211__A1 _04010_ vdd vdd vss vss gf180mcu_fd_sc_mcu7t5v0__antenna
XFILLER_0_40_280 vdd vdd vss vss gf180mcu_fd_sc_mcu7t5v0__fill_2
XFILLER_0_111_691 vdd vdd vss vss gf180mcu_fd_sc_mcu7t5v0__fill_2
XFILLER_0_110_190 vdd vdd vss vss gf180mcu_fd_sc_mcu7t5v0__fill_2
X_09938_ _00453_ net168 ci_neuron.uut_simple_neuron.x0\[9\] vdd vdd vss vss gf180mcu_fd_sc_mcu7t5v0__dffq_1
XTAP_TAPCELL_ROW_5_343 vdd vss gf180mcu_fd_sc_mcu7t5v0__filltie
X_09869_ _00060_ net33 ci_neuron.value_i\[5\] vdd vdd vss vss gf180mcu_fd_sc_mcu7t5v0__dffq_1
XFILLER_0_96_910 vdd vdd vss vss gf180mcu_fd_sc_mcu7t5v0__fill_2
XFILLER_0_56_807 vdd vdd vss vss gf180mcu_fd_sc_mcu7t5v0__fill_2
XFILLER_0_95_453 vdd vdd vss vss gf180mcu_fd_sc_mcu7t5v0__fillcap_4
XFILLER_0_67_177 vdd vdd vss vss gf180mcu_fd_sc_mcu7t5v0__fillcap_4
XFILLER_0_67_166 vdd vdd vss vss gf180mcu_fd_sc_mcu7t5v0__fill_1
XANTENNA__09373__S1 _04607_ vdd vdd vss vss gf180mcu_fd_sc_mcu7t5v0__antenna
XFILLER_0_126_706 vdd vdd vss vss gf180mcu_fd_sc_mcu7t5v0__fill_2
XFILLER_0_95_486 vdd vdd vss vss gf180mcu_fd_sc_mcu7t5v0__fill_2
XTAP_TAPCELL_ROW_52_960 vdd vss gf180mcu_fd_sc_mcu7t5v0__filltie
XFILLER_0_119_780 vdd vdd vss vss gf180mcu_fd_sc_mcu7t5v0__fillcap_4
XFILLER_0_36_531 vdd vdd vss vss gf180mcu_fd_sc_mcu7t5v0__fill_2
XFILLER_0_125_238 vdd vdd vss vss gf180mcu_fd_sc_mcu7t5v0__fillcap_8
XFILLER_0_24_737 vdd vdd vss vss gf180mcu_fd_sc_mcu7t5v0__fillcap_8
XFILLER_0_36_597 vdd vdd vss vss gf180mcu_fd_sc_mcu7t5v0__fillcap_8
XANTENNA__09202__A1 _03984_ vdd vdd vss vss gf180mcu_fd_sc_mcu7t5v0__antenna
XTAP_TAPCELL_ROW_110_1709 vdd vss gf180mcu_fd_sc_mcu7t5v0__filltie
X_10009_ ci_neuron.input_memory\[1\]\[9\] net205 ci_neuron.uut_simple_neuron.titan_id_1\[11\]
+ vdd vdd vss vss gf180mcu_fd_sc_mcu7t5v0__dffq_1
X_05550_ _00859_ _01178_ _01174_ _01218_ vdd vdd vss vss gf180mcu_fd_sc_mcu7t5v0__aoi21_4
XTAP_TAPCELL_ROW_121_1849 vdd vss gf180mcu_fd_sc_mcu7t5v0__filltie
XANTENNA__05451__I _01121_ vdd vdd vss vss gf180mcu_fd_sc_mcu7t5v0__antenna
XFILLER_0_80_79 vdd vdd vss vss gf180mcu_fd_sc_mcu7t5v0__fillcap_4
X_05481_ _01097_ _01150_ _01151_ vdd vdd vss vss gf180mcu_fd_sc_mcu7t5v0__xor2_1
XFILLER_0_73_103 vdd vdd vss vss gf180mcu_fd_sc_mcu7t5v0__fill_2
XFILLER_0_58_177 vdd vdd vss vss gf180mcu_fd_sc_mcu7t5v0__fillcap_8
XFILLER_0_46_317 vdd vdd vss vss gf180mcu_fd_sc_mcu7t5v0__fill_2
XFILLER_0_129_588 vdd vdd vss vss gf180mcu_fd_sc_mcu7t5v0__fill_2
X_07220_ _02789_ _02848_ _02849_ _02850_ vdd vdd vss vss gf180mcu_fd_sc_mcu7t5v0__oai21_2
XANTENNA__08619__I1 _02934_ vdd vdd vss vss gf180mcu_fd_sc_mcu7t5v0__antenna
XFILLER_0_27_553 vdd vdd vss vss gf180mcu_fd_sc_mcu7t5v0__fillcap_4
X_07151_ _02718_ _02759_ _02782_ vdd vdd vss vss gf180mcu_fd_sc_mcu7t5v0__nor2_1
XFILLER_0_54_372 vdd vdd vss vss gf180mcu_fd_sc_mcu7t5v0__fillcap_4
XTAP_TAPCELL_ROW_30_665 vdd vss gf180mcu_fd_sc_mcu7t5v0__filltie
XFILLER_0_42_512 vdd vdd vss vss gf180mcu_fd_sc_mcu7t5v0__fill_1
XFILLER_0_113_912 vdd vdd vss vss gf180mcu_fd_sc_mcu7t5v0__fill_1
X_06102_ _00747_ ci_neuron.uut_simple_neuron.x2\[29\] _01758_ vdd vdd vss vss gf180mcu_fd_sc_mcu7t5v0__nand2_1
XFILLER_0_70_843 vdd vdd vss vss gf180mcu_fd_sc_mcu7t5v0__fill_2
XFILLER_0_54_383 vdd vdd vss vss gf180mcu_fd_sc_mcu7t5v0__fill_2
XFILLER_0_14_247 vdd vdd vss vss gf180mcu_fd_sc_mcu7t5v0__fillcap_4
XANTENNA__09441__A1 ci_neuron.output_memory\[11\] vdd vdd vss vss gf180mcu_fd_sc_mcu7t5v0__antenna
X_07082_ _01835_ _02713_ _02714_ vdd vdd vss vss gf180mcu_fd_sc_mcu7t5v0__nand2_1
XFILLER_0_89_88 vdd vdd vss vss gf180mcu_fd_sc_mcu7t5v0__fillcap_4
XFILLER_0_30_718 vdd vdd vss vss gf180mcu_fd_sc_mcu7t5v0__fill_1
XFILLER_0_100_606 vdd vdd vss vss gf180mcu_fd_sc_mcu7t5v0__fillcap_4
X_06033_ _01650_ _01679_ _01690_ vdd vdd vss vss gf180mcu_fd_sc_mcu7t5v0__nand2_1
XFILLER_0_100_628 vdd vdd vss vss gf180mcu_fd_sc_mcu7t5v0__fill_2
XFILLER_0_59_4 vdd vdd vss vss gf180mcu_fd_sc_mcu7t5v0__fill_1
Xfanout116 net117 net116 vdd vdd vss vss gf180mcu_fd_sc_mcu7t5v0__clkbuf_1
Xfanout127 net135 net127 vdd vdd vss vss gf180mcu_fd_sc_mcu7t5v0__clkbuf_1
Xfanout138 net140 net138 vdd vdd vss vss gf180mcu_fd_sc_mcu7t5v0__clkbuf_1
Xfanout105 net106 net105 vdd vdd vss vss gf180mcu_fd_sc_mcu7t5v0__clkbuf_1
Xfanout149 net150 net149 vdd vdd vss vss gf180mcu_fd_sc_mcu7t5v0__clkbuf_1
X_07984_ ci_neuron.uut_simple_neuron.titan_id_2\[26\] ci_neuron.uut_simple_neuron.titan_id_5\[26\]
+ _03552_ vdd vdd vss vss gf180mcu_fd_sc_mcu7t5v0__xnor2_1
XFILLER_0_38_70 vdd vdd vss vss gf180mcu_fd_sc_mcu7t5v0__fill_2
X_06935_ _02472_ _02570_ vdd vdd vss vss gf180mcu_fd_sc_mcu7t5v0__clkinv_1
XANTENNA__08555__I0 _04040_ vdd vdd vss vss gf180mcu_fd_sc_mcu7t5v0__antenna
X_09723_ _00302_ net256 ci_neuron.uut_simple_neuron.x2\[4\] vdd vdd vss vss gf180mcu_fd_sc_mcu7t5v0__dffq_1
XTAP_TAPCELL_ROW_2_302 vdd vss gf180mcu_fd_sc_mcu7t5v0__filltie
X_06866_ _02388_ _02501_ _02502_ vdd vdd vss vss gf180mcu_fd_sc_mcu7t5v0__xnor2_1
XTAP_TAPCELL_ROW_87_1413 vdd vss gf180mcu_fd_sc_mcu7t5v0__filltie
X_09654_ _04810_ _04826_ vdd vdd vss vss gf180mcu_fd_sc_mcu7t5v0__buf_2
X_05817_ _01327_ _01478_ _01479_ vdd vdd vss vss gf180mcu_fd_sc_mcu7t5v0__nand2_1
X_08605_ _03864_ _04077_ _04083_ vdd vdd vss vss gf180mcu_fd_sc_mcu7t5v0__nor2_1
X_06797_ _02376_ _02432_ _02433_ _02434_ vdd vdd vss vss gf180mcu_fd_sc_mcu7t5v0__oai21_1
XFILLER_0_49_122 vdd vdd vss vss gf180mcu_fd_sc_mcu7t5v0__fill_1
XTAP_TAPCELL_ROW_38_776 vdd vss gf180mcu_fd_sc_mcu7t5v0__filltie
X_09585_ _04607_ ci_neuron.normalised_stream_write_address\[1\] _04785_ _04787_ vdd
+ vdd vss vss gf180mcu_fd_sc_mcu7t5v0__mux2_2
XFILLER_0_92_401 vdd vdd vss vss gf180mcu_fd_sc_mcu7t5v0__fill_2
X_05748_ _01361_ _01409_ _01410_ _01411_ vdd vdd vss vss gf180mcu_fd_sc_mcu7t5v0__oai21_1
X_08536_ _04024_ _00262_ vdd vdd vss vss gf180mcu_fd_sc_mcu7t5v0__clkbuf_1
XFILLER_0_49_144 vdd vdd vss vss gf180mcu_fd_sc_mcu7t5v0__fill_1
XFILLER_0_108_717 vdd vdd vss vss gf180mcu_fd_sc_mcu7t5v0__fill_1
XFILLER_0_77_486 vdd vdd vss vss gf180mcu_fd_sc_mcu7t5v0__fillcap_4
X_05679_ _01342_ _01344_ vdd vdd vss vss gf180mcu_fd_sc_mcu7t5v0__clkbuf_1
X_08467_ _03950_ _03965_ vdd vdd vss vss gf180mcu_fd_sc_mcu7t5v0__clkbuf_2
XANTENNA__08483__A2 _03952_ vdd vdd vss vss gf180mcu_fd_sc_mcu7t5v0__antenna
X_07418_ _01988_ _01991_ _03046_ vdd vdd vss vss gf180mcu_fd_sc_mcu7t5v0__nand2_1
XFILLER_0_108_739 vdd vdd vss vss gf180mcu_fd_sc_mcu7t5v0__fill_1
XFILLER_0_107_216 vdd vdd vss vss gf180mcu_fd_sc_mcu7t5v0__fill_2
XFILLER_0_64_147 vdd vdd vss vss gf180mcu_fd_sc_mcu7t5v0__fill_2
X_08398_ _03902_ _00188_ vdd vdd vss vss gf180mcu_fd_sc_mcu7t5v0__clkbuf_1
XFILLER_0_46_862 vdd vdd vss vss gf180mcu_fd_sc_mcu7t5v0__fillcap_8
X_07349_ _02974_ _02977_ _02978_ vdd vdd vss vss gf180mcu_fd_sc_mcu7t5v0__xor2_1
XFILLER_0_70_90 vdd vdd vss vss gf180mcu_fd_sc_mcu7t5v0__fill_1
XFILLER_0_9_296 vdd vdd vss vss gf180mcu_fd_sc_mcu7t5v0__fill_2
XFILLER_0_18_597 vdd vdd vss vss gf180mcu_fd_sc_mcu7t5v0__fillcap_16
XTAP_TAPCELL_ROW_98_1553 vdd vss gf180mcu_fd_sc_mcu7t5v0__filltie
XANTENNA__09283__I1 ci_neuron.input_memory\[1\]\[3\] vdd vdd vss vss gf180mcu_fd_sc_mcu7t5v0__antenna
XFILLER_0_61_832 vdd vdd vss vss gf180mcu_fd_sc_mcu7t5v0__fill_2
XFILLER_0_33_523 vdd vdd vss vss gf180mcu_fd_sc_mcu7t5v0__fill_1
XFILLER_0_116_794 vdd vdd vss vss gf180mcu_fd_sc_mcu7t5v0__fillcap_8
XFILLER_0_115_282 vdd vdd vss vss gf180mcu_fd_sc_mcu7t5v0__fillcap_16
XFILLER_0_103_422 vdd vdd vss vss gf180mcu_fd_sc_mcu7t5v0__fillcap_4
XFILLER_0_21_707 vdd vdd vss vss gf180mcu_fd_sc_mcu7t5v0__fill_1
XFILLER_0_21_729 vdd vdd vss vss gf180mcu_fd_sc_mcu7t5v0__fill_2
XFILLER_0_20_217 vdd vdd vss vss gf180mcu_fd_sc_mcu7t5v0__fillcap_8
XFILLER_0_20_239 vdd vdd vss vss gf180mcu_fd_sc_mcu7t5v0__fillcap_4
X_09019_ internal_ih.data_pointer\[1\] _04367_ vdd vdd vss vss gf180mcu_fd_sc_mcu7t5v0__buf_1
XANTENNA__09499__A1 ci_neuron.output_memory\[19\] vdd vdd vss vss gf180mcu_fd_sc_mcu7t5v0__antenna
XANTENNA__04980__A1 internal_ih.byte1\[7\] vdd vdd vss vss gf180mcu_fd_sc_mcu7t5v0__antenna
XFILLER_0_87_206 vdd vdd vss vss gf180mcu_fd_sc_mcu7t5v0__fillcap_4
XTAP_TAPCELL_ROW_107_1671 vdd vss gf180mcu_fd_sc_mcu7t5v0__filltie
XFILLER_0_68_431 vdd vdd vss vss gf180mcu_fd_sc_mcu7t5v0__fillcap_8
XFILLER_0_83_434 vdd vdd vss vss gf180mcu_fd_sc_mcu7t5v0__fill_1
XFILLER_0_28_317 vdd vdd vss vss gf180mcu_fd_sc_mcu7t5v0__fillcap_8
XFILLER_0_126_503 vdd vdd vss vss gf180mcu_fd_sc_mcu7t5v0__fillcap_8
XFILLER_0_83_456 vdd vdd vss vss gf180mcu_fd_sc_mcu7t5v0__fill_2
XFILLER_0_71_607 vdd vdd vss vss gf180mcu_fd_sc_mcu7t5v0__fill_1
XFILLER_0_55_136 vdd vdd vss vss gf180mcu_fd_sc_mcu7t5v0__fillcap_4
XFILLER_0_83_489 vdd vdd vss vss gf180mcu_fd_sc_mcu7t5v0__fill_1
XFILLER_0_71_618 vdd vdd vss vss gf180mcu_fd_sc_mcu7t5v0__fillcap_4
XFILLER_0_55_169 vdd vdd vss vss gf180mcu_fd_sc_mcu7t5v0__fill_1
XFILLER_0_43_309 vdd vdd vss vss gf180mcu_fd_sc_mcu7t5v0__fill_2
XFILLER_0_107_772 vdd vdd vss vss gf180mcu_fd_sc_mcu7t5v0__fillcap_4
XANTENNA__06237__A1 _01857_ vdd vdd vss vss gf180mcu_fd_sc_mcu7t5v0__antenna
XFILLER_0_24_545 vdd vdd vss vss gf180mcu_fd_sc_mcu7t5v0__fillcap_16
XFILLER_0_36_383 vdd vdd vss vss gf180mcu_fd_sc_mcu7t5v0__fill_2
XFILLER_0_106_293 vdd vdd vss vss gf180mcu_fd_sc_mcu7t5v0__fillcap_4
XFILLER_0_122_753 vdd vdd vss vss gf180mcu_fd_sc_mcu7t5v0__fill_1
XANTENNA__06788__A2 _02374_ vdd vdd vss vss gf180mcu_fd_sc_mcu7t5v0__antenna
XTAP_TAPCELL_ROW_58_1036 vdd vss gf180mcu_fd_sc_mcu7t5v0__filltie
XFILLER_0_122_786 vdd vdd vss vss gf180mcu_fd_sc_mcu7t5v0__fill_1
XTAP_TAPCELL_ROW_71_1203 vdd vss gf180mcu_fd_sc_mcu7t5v0__filltie
XFILLER_0_75_35 vdd vdd vss vss gf180mcu_fd_sc_mcu7t5v0__fill_2
XANTENNA__05212__A2 _00888_ vdd vdd vss vss gf180mcu_fd_sc_mcu7t5v0__antenna
X_04981_ _00684_ _00039_ vdd vdd vss vss gf180mcu_fd_sc_mcu7t5v0__clkbuf_1
X_06720_ _02358_ _00235_ vdd vdd vss vss gf180mcu_fd_sc_mcu7t5v0__clkbuf_1
XANTENNA__08757__I _04207_ vdd vdd vss vss gf180mcu_fd_sc_mcu7t5v0__antenna
XANTENNA__04971__A1 internal_ih.byte1\[3\] vdd vdd vss vss gf180mcu_fd_sc_mcu7t5v0__antenna
X_06651_ _02044_ _02290_ _02291_ vdd vdd vss vss gf180mcu_fd_sc_mcu7t5v0__xor2_1
X_05602_ _00937_ _01266_ _01268_ _01269_ vdd vdd vss vss gf180mcu_fd_sc_mcu7t5v0__aoi21_1
XTAP_TAPCELL_ROW_69_1176 vdd vss gf180mcu_fd_sc_mcu7t5v0__filltie
X_06582_ _02188_ _02223_ vdd vdd vss vss gf180mcu_fd_sc_mcu7t5v0__clkbuf_2
XANTENNA__05181__I _00858_ vdd vdd vss vss gf180mcu_fd_sc_mcu7t5v0__antenna
X_09370_ _04604_ _04605_ vdd vdd vss vss gf180mcu_fd_sc_mcu7t5v0__buf_2
XTAP_TAPCELL_ROW_35_735 vdd vss gf180mcu_fd_sc_mcu7t5v0__filltie
X_05533_ _01123_ _01162_ _01202_ vdd vdd vss vss gf180mcu_fd_sc_mcu7t5v0__nor2_1
XTAP_TAPCELL_ROW_82_1343 vdd vss gf180mcu_fd_sc_mcu7t5v0__filltie
XFILLER_0_59_486 vdd vdd vss vss gf180mcu_fd_sc_mcu7t5v0__fillcap_4
X_08321_ ci_neuron.uut_simple_neuron.x0\[18\] _03835_ vdd vdd vss vss gf180mcu_fd_sc_mcu7t5v0__clkbuf_2
XFILLER_0_47_626 vdd vdd vss vss gf180mcu_fd_sc_mcu7t5v0__fill_2
X_05464_ _01131_ _01107_ _01133_ _01056_ _01134_ vdd vdd vss vss gf180mcu_fd_sc_mcu7t5v0__oai22_2
X_08252_ _03775_ _00199_ vdd vdd vss vss gf180mcu_fd_sc_mcu7t5v0__clkbuf_1
XTAP_TAPCELL_ROW_15_470 vdd vss gf180mcu_fd_sc_mcu7t5v0__filltie
X_07203_ _02784_ _02833_ _02834_ vdd vdd vss vss gf180mcu_fd_sc_mcu7t5v0__xnor2_1
XFILLER_0_6_244 vdd vdd vss vss gf180mcu_fd_sc_mcu7t5v0__fill_1
X_05395_ _00934_ _01067_ vdd vdd vss vss gf180mcu_fd_sc_mcu7t5v0__clkbuf_2
X_08183_ _03692_ _03700_ _03712_ _03716_ _03717_ vdd vdd vss vss gf180mcu_fd_sc_mcu7t5v0__oai31_2
XFILLER_0_40_71 vdd vdd vss vss gf180mcu_fd_sc_mcu7t5v0__fillcap_8
XFILLER_0_43_854 vdd vdd vss vss gf180mcu_fd_sc_mcu7t5v0__fillcap_8
X_07134_ _02647_ _02765_ _02766_ vdd vdd vss vss gf180mcu_fd_sc_mcu7t5v0__nand2_1
XFILLER_0_70_651 vdd vdd vss vss gf180mcu_fd_sc_mcu7t5v0__fillcap_8
XFILLER_0_42_342 vdd vdd vss vss gf180mcu_fd_sc_mcu7t5v0__fill_1
X_07065_ _02652_ _02697_ _02698_ vdd vdd vss vss gf180mcu_fd_sc_mcu7t5v0__xnor2_1
X_06016_ _01665_ _01673_ _01674_ vdd vdd vss vss gf180mcu_fd_sc_mcu7t5v0__xnor2_1
XFILLER_0_64_2 vdd vdd vss vss gf180mcu_fd_sc_mcu7t5v0__fill_1
XFILLER_0_2_461 vdd vdd vss vss gf180mcu_fd_sc_mcu7t5v0__fill_2
XTAP_TAPCELL_ROW_93_1494 vdd vss gf180mcu_fd_sc_mcu7t5v0__filltie
XTAP_TAPCELL_ROW_93_1483 vdd vss gf180mcu_fd_sc_mcu7t5v0__filltie
XANTENNA__09568__I2 _01751_ vdd vdd vss vss gf180mcu_fd_sc_mcu7t5v0__antenna
XFILLER_0_49_80 vdd vdd vss vss gf180mcu_fd_sc_mcu7t5v0__fillcap_16
X_07967_ _03537_ _00142_ vdd vdd vss vss gf180mcu_fd_sc_mcu7t5v0__clkbuf_1
X_06918_ _02498_ _02552_ _02553_ vdd vdd vss vss gf180mcu_fd_sc_mcu7t5v0__and2_1
XANTENNA__08528__I0 _04017_ vdd vdd vss vss gf180mcu_fd_sc_mcu7t5v0__antenna
X_09706_ _00285_ net131 internal_ih.spi_rx_byte_i\[3\] vdd vdd vss vss gf180mcu_fd_sc_mcu7t5v0__dffq_1
XFILLER_0_65_90 vdd vdd vss vss gf180mcu_fd_sc_mcu7t5v0__fill_2
X_07898_ ci_neuron.uut_simple_neuron.titan_id_2\[11\] ci_neuron.uut_simple_neuron.titan_id_5\[11\]
+ _03480_ vdd vdd vss vss gf180mcu_fd_sc_mcu7t5v0__nand2_1
XANTENNA__04962__A1 internal_ih.byte0\[7\] vdd vdd vss vss gf180mcu_fd_sc_mcu7t5v0__antenna
XANTENNA__06703__A2 _02341_ vdd vdd vss vss gf180mcu_fd_sc_mcu7t5v0__antenna
X_06849_ _02440_ _02456_ _02485_ vdd vdd vss vss gf180mcu_fd_sc_mcu7t5v0__nor2_1
X_09637_ ci_neuron.stream_o\[20\] ci_neuron.output_memory\[20\] _04816_ _04817_ vdd
+ vdd vss vss gf180mcu_fd_sc_mcu7t5v0__mux2_2
X_09568_ _03915_ ci_neuron.input_memory\[1\]\[29\] _01751_ ci_neuron.uut_simple_neuron.x3\[29\]
+ _04760_ _04761_ _04774_ vdd vdd vss vss gf180mcu_fd_sc_mcu7t5v0__mux4_4
XFILLER_0_38_648 vdd vdd vss vss gf180mcu_fd_sc_mcu7t5v0__fillcap_16