* NGSPICE file created from wishbone_register.ext - technology: gf180mcuD

* Black-box entry subcircuit for gf180mcu_fd_sc_mcu7t5v0__antenna abstract view
.subckt gf180mcu_fd_sc_mcu7t5v0__antenna I VDD VNW VPW VSS
.ends

* Black-box entry subcircuit for gf180mcu_fd_sc_mcu7t5v0__endcap abstract view
.subckt gf180mcu_fd_sc_mcu7t5v0__endcap VDD VSS
.ends

* Black-box entry subcircuit for gf180mcu_fd_sc_mcu7t5v0__dffq_1 abstract view
.subckt gf180mcu_fd_sc_mcu7t5v0__dffq_1 D CLK Q VDD VNW VPW VSS
.ends

* Black-box entry subcircuit for gf180mcu_fd_sc_mcu7t5v0__fillcap_4 abstract view
.subckt gf180mcu_fd_sc_mcu7t5v0__fillcap_4 VDD VNW VPW VSS
.ends

* Black-box entry subcircuit for gf180mcu_fd_sc_mcu7t5v0__fill_2 abstract view
.subckt gf180mcu_fd_sc_mcu7t5v0__fill_2 VDD VNW VPW VSS
.ends

* Black-box entry subcircuit for gf180mcu_fd_sc_mcu7t5v0__dffrnq_1 abstract view
.subckt gf180mcu_fd_sc_mcu7t5v0__dffrnq_1 D RN CLK Q VDD VNW VPW VSS
.ends

* Black-box entry subcircuit for gf180mcu_fd_sc_mcu7t5v0__filltie abstract view
.subckt gf180mcu_fd_sc_mcu7t5v0__filltie VDD VSS
.ends

* Black-box entry subcircuit for gf180mcu_fd_sc_mcu7t5v0__fill_1 abstract view
.subckt gf180mcu_fd_sc_mcu7t5v0__fill_1 VDD VNW VPW VSS
.ends

* Black-box entry subcircuit for gf180mcu_fd_sc_mcu7t5v0__fillcap_16 abstract view
.subckt gf180mcu_fd_sc_mcu7t5v0__fillcap_16 VDD VNW VPW VSS
.ends

* Black-box entry subcircuit for gf180mcu_fd_sc_mcu7t5v0__clkbuf_1 abstract view
.subckt gf180mcu_fd_sc_mcu7t5v0__clkbuf_1 I Z VDD VNW VPW VSS
.ends

* Black-box entry subcircuit for gf180mcu_fd_sc_mcu7t5v0__nor2_1 abstract view
.subckt gf180mcu_fd_sc_mcu7t5v0__nor2_1 A1 A2 ZN VDD VNW VPW VSS
.ends

* Black-box entry subcircuit for gf180mcu_fd_sc_mcu7t5v0__mux2_2 abstract view
.subckt gf180mcu_fd_sc_mcu7t5v0__mux2_2 I0 I1 S Z VDD VNW VPW VSS
.ends

* Black-box entry subcircuit for gf180mcu_fd_sc_mcu7t5v0__nand4_2 abstract view
.subckt gf180mcu_fd_sc_mcu7t5v0__nand4_2 A1 A2 A3 A4 ZN VDD VNW VPW VSS
.ends

* Black-box entry subcircuit for gf180mcu_fd_sc_mcu7t5v0__fillcap_32 abstract view
.subckt gf180mcu_fd_sc_mcu7t5v0__fillcap_32 VDD VNW VPW VSS
.ends

* Black-box entry subcircuit for gf180mcu_fd_sc_mcu7t5v0__tiel abstract view
.subckt gf180mcu_fd_sc_mcu7t5v0__tiel ZN VDD VNW VPW VSS
.ends

* Black-box entry subcircuit for gf180mcu_fd_sc_mcu7t5v0__nand2_1 abstract view
.subckt gf180mcu_fd_sc_mcu7t5v0__nand2_1 A1 A2 ZN VDD VNW VPW VSS
.ends

* Black-box entry subcircuit for gf180mcu_fd_sc_mcu7t5v0__nor4_4 abstract view
.subckt gf180mcu_fd_sc_mcu7t5v0__nor4_4 A1 A2 A3 A4 ZN VDD VNW VPW VSS
.ends

* Black-box entry subcircuit for gf180mcu_fd_sc_mcu7t5v0__fillcap_8 abstract view
.subckt gf180mcu_fd_sc_mcu7t5v0__fillcap_8 VDD VNW VPW VSS
.ends

* Black-box entry subcircuit for gf180mcu_fd_sc_mcu7t5v0__clkbuf_4 abstract view
.subckt gf180mcu_fd_sc_mcu7t5v0__clkbuf_4 I Z VDD VNW VPW VSS
.ends

* Black-box entry subcircuit for gf180mcu_fd_sc_mcu7t5v0__clkinv_1 abstract view
.subckt gf180mcu_fd_sc_mcu7t5v0__clkinv_1 I ZN VDD VNW VPW VSS
.ends

* Black-box entry subcircuit for gf180mcu_fd_sc_mcu7t5v0__buf_3 abstract view
.subckt gf180mcu_fd_sc_mcu7t5v0__buf_3 I Z VDD VNW VPW VSS
.ends

* Black-box entry subcircuit for gf180mcu_fd_sc_mcu7t5v0__buf_1 abstract view
.subckt gf180mcu_fd_sc_mcu7t5v0__buf_1 I Z VDD VNW VPW VSS
.ends

* Black-box entry subcircuit for gf180mcu_fd_sc_mcu7t5v0__clkbuf_16 abstract view
.subckt gf180mcu_fd_sc_mcu7t5v0__clkbuf_16 I Z VDD VNW VPW VSS
.ends

* Black-box entry subcircuit for gf180mcu_fd_sc_mcu7t5v0__nor4_2 abstract view
.subckt gf180mcu_fd_sc_mcu7t5v0__nor4_2 A1 A2 A3 A4 ZN VDD VNW VPW VSS
.ends

* Black-box entry subcircuit for gf180mcu_fd_sc_mcu7t5v0__tieh abstract view
.subckt gf180mcu_fd_sc_mcu7t5v0__tieh Z VDD VNW VPW VSS
.ends

* Black-box entry subcircuit for gf180mcu_fd_sc_mcu7t5v0__fillcap_64 abstract view
.subckt gf180mcu_fd_sc_mcu7t5v0__fillcap_64 VDD VNW VPW VSS
.ends

.subckt wishbone_register reg_q_o vdd vss wb_clk_i wb_rst_i wbs_ack_o wbs_adr_i[0]
+ wbs_adr_i[10] wbs_adr_i[11] wbs_adr_i[12] wbs_adr_i[13] wbs_adr_i[14] wbs_adr_i[15]
+ wbs_adr_i[16] wbs_adr_i[17] wbs_adr_i[18] wbs_adr_i[19] wbs_adr_i[1] wbs_adr_i[20]
+ wbs_adr_i[21] wbs_adr_i[22] wbs_adr_i[23] wbs_adr_i[24] wbs_adr_i[25] wbs_adr_i[26]
+ wbs_adr_i[27] wbs_adr_i[28] wbs_adr_i[29] wbs_adr_i[2] wbs_adr_i[30] wbs_adr_i[31]
+ wbs_adr_i[3] wbs_adr_i[4] wbs_adr_i[5] wbs_adr_i[6] wbs_adr_i[7] wbs_adr_i[8] wbs_adr_i[9]
+ wbs_cyc_i wbs_dat_i[0] wbs_dat_i[10] wbs_dat_i[11] wbs_dat_i[12] wbs_dat_i[13] wbs_dat_i[14]
+ wbs_dat_i[15] wbs_dat_i[16] wbs_dat_i[17] wbs_dat_i[18] wbs_dat_i[19] wbs_dat_i[1]
+ wbs_dat_i[20] wbs_dat_i[21] wbs_dat_i[22] wbs_dat_i[23] wbs_dat_i[24] wbs_dat_i[25]
+ wbs_dat_i[26] wbs_dat_i[27] wbs_dat_i[28] wbs_dat_i[29] wbs_dat_i[2] wbs_dat_i[30]
+ wbs_dat_i[31] wbs_dat_i[3] wbs_dat_i[4] wbs_dat_i[5] wbs_dat_i[6] wbs_dat_i[7] wbs_dat_i[8]
+ wbs_dat_i[9] wbs_dat_o[0] wbs_dat_o[20] wbs_dat_o[21] wbs_dat_o[22] wbs_dat_o[23]
+ wbs_dat_o[24] wbs_dat_o[25] wbs_dat_o[26] wbs_dat_o[27] wbs_dat_o[5] wbs_dat_o[6]
+ wbs_dat_o[7] wbs_dat_o[8] wbs_dat_o[9] wbs_sel_i[0] wbs_sel_i[1] wbs_sel_i[2] wbs_sel_i[3]
+ wbs_stb_i wbs_we_i wbs_dat_o[10] wbs_dat_o[30] wbs_dat_o[19] wbs_dat_o[29] wbs_dat_o[18]
+ wbs_dat_o[28] wbs_dat_o[17] wbs_dat_o[16] wbs_dat_o[4] wbs_dat_o[15] wbs_dat_o[3]
+ wbs_dat_o[14] wbs_dat_o[13] wbs_dat_o[2] wbs_dat_o[1] wbs_dat_o[12] wbs_dat_o[11]
+ wbs_dat_o[31]
XANTENNA_input36_I wbs_we_i vdd vdd vss vss gf180mcu_fd_sc_mcu7t5v0__antenna
XPHY_EDGE_ROW_8_Left_25 vdd vss gf180mcu_fd_sc_mcu7t5v0__endcap
X_49_ _03_ clknet_1_1__leaf_wb_clk_i net39 vdd vdd vss vss gf180mcu_fd_sc_mcu7t5v0__dffq_1
XFILLER_0_1_72 vdd vdd vss vss gf180mcu_fd_sc_mcu7t5v0__fillcap_4
XFILLER_0_16_95 vdd vdd vss vss gf180mcu_fd_sc_mcu7t5v0__fill_2
XFILLER_0_6_28 vdd vdd vss vss gf180mcu_fd_sc_mcu7t5v0__fillcap_4
XFILLER_0_1_142 vdd vdd vss vss gf180mcu_fd_sc_mcu7t5v0__fill_2
XANTENNA_input29_I wbs_adr_i[5] vdd vdd vss vss gf180mcu_fd_sc_mcu7t5v0__antenna
XPHY_EDGE_ROW_12_Right_12 vdd vss gf180mcu_fd_sc_mcu7t5v0__endcap
X_48_ net71 _01_ clknet_1_0__leaf_wb_clk_i net38 vdd vdd vss vss gf180mcu_fd_sc_mcu7t5v0__dffrnq_1
XTAP_TAPCELL_ROW_5_46 vdd vss gf180mcu_fd_sc_mcu7t5v0__filltie
XFILLER_0_1_62 vdd vdd vss vss gf180mcu_fd_sc_mcu7t5v0__fill_2
XFILLER_0_16_63 vdd vdd vss vss gf180mcu_fd_sc_mcu7t5v0__fill_1
XANTENNA_input11_I wbs_adr_i[18] vdd vdd vss vss gf180mcu_fd_sc_mcu7t5v0__antenna
XPHY_EDGE_ROW_6_Right_6 vdd vss gf180mcu_fd_sc_mcu7t5v0__endcap
XFILLER_0_8_104 vdd vdd vss vss gf180mcu_fd_sc_mcu7t5v0__fill_1
XTAP_TAPCELL_ROW_15_66 vdd vss gf180mcu_fd_sc_mcu7t5v0__filltie
XFILLER_0_5_118 vdd vdd vss vss gf180mcu_fd_sc_mcu7t5v0__fillcap_16
XANTENNA_input3_I wbs_adr_i[10] vdd vdd vss vss gf180mcu_fd_sc_mcu7t5v0__antenna
XFILLER_0_4_151 vdd vdd vss vss gf180mcu_fd_sc_mcu7t5v0__fill_1
XFILLER_0_11_6 vdd vdd vss vss gf180mcu_fd_sc_mcu7t5v0__fillcap_16
XFILLER_0_1_110 vdd vdd vss vss gf180mcu_fd_sc_mcu7t5v0__fillcap_4
X_47_ _02_ _00_ clknet_1_0__leaf_wb_clk_i net37 vdd vdd vss vss gf180mcu_fd_sc_mcu7t5v0__dffrnq_1
XFILLER_0_10_32 vdd vdd vss vss gf180mcu_fd_sc_mcu7t5v0__fill_1
XTAP_TAPCELL_ROW_5_47 vdd vss gf180mcu_fd_sc_mcu7t5v0__filltie
XFILLER_0_16_119 vdd vdd vss vss gf180mcu_fd_sc_mcu7t5v0__fill_2
XFILLER_0_16_108 vdd vdd vss vss gf180mcu_fd_sc_mcu7t5v0__fill_1
XFILLER_0_1_85 vdd vdd vss vss gf180mcu_fd_sc_mcu7t5v0__fillcap_4
XFILLER_0_1_52 vdd vdd vss vss gf180mcu_fd_sc_mcu7t5v0__fillcap_4
XTAP_TAPCELL_ROW_15_67 vdd vss gf180mcu_fd_sc_mcu7t5v0__filltie
XFILLER_0_1_144 vdd vdd vss vss gf180mcu_fd_sc_mcu7t5v0__fill_1
XFILLER_0_1_133 vdd vdd vss vss gf180mcu_fd_sc_mcu7t5v0__fill_1
XFILLER_0_1_122 vdd vdd vss vss gf180mcu_fd_sc_mcu7t5v0__fill_2
XFILLER_0_4_30 vdd vdd vss vss gf180mcu_fd_sc_mcu7t5v0__fillcap_4
X_46_ _22_ _03_ vdd vdd vss vss gf180mcu_fd_sc_mcu7t5v0__clkbuf_1
XANTENNA_input34_I wbs_dat_i[0] vdd vdd vss vss gf180mcu_fd_sc_mcu7t5v0__antenna
X_29_ net13 net2 _09_ vdd vdd vss vss gf180mcu_fd_sc_mcu7t5v0__nor2_1
XFILLER_0_15_142 vdd vdd vss vss gf180mcu_fd_sc_mcu7t5v0__fill_2
XFILLER_0_16_54 vdd vdd vss vss gf180mcu_fd_sc_mcu7t5v0__fill_1
XFILLER_0_12_101 vdd vdd vss vss gf180mcu_fd_sc_mcu7t5v0__fillcap_4
XFILLER_0_4_53 vdd vdd vss vss gf180mcu_fd_sc_mcu7t5v0__fillcap_4
XFILLER_0_4_97 vdd vdd vss vss gf180mcu_fd_sc_mcu7t5v0__fill_2
XFILLER_0_10_12 vdd vdd vss vss gf180mcu_fd_sc_mcu7t5v0__fillcap_16
XANTENNA_input27_I wbs_adr_i[3] vdd vdd vss vss gf180mcu_fd_sc_mcu7t5v0__antenna
X_45_ net37 net39 _21_ _22_ vdd vdd vss vss gf180mcu_fd_sc_mcu7t5v0__mux2_2
XFILLER_0_1_76 vdd vdd vss vss gf180mcu_fd_sc_mcu7t5v0__fill_1
XFILLER_0_1_43 vdd vdd vss vss gf180mcu_fd_sc_mcu7t5v0__fill_2
X_28_ net23 net22 _06_ _07_ _08_ vdd vdd vss vss gf180mcu_fd_sc_mcu7t5v0__nand4_2
XPHY_EDGE_ROW_12_Left_29 vdd vss gf180mcu_fd_sc_mcu7t5v0__endcap
XFILLER_0_16_77 vdd vdd vss vss gf180mcu_fd_sc_mcu7t5v0__fill_2
XPHY_EDGE_ROW_15_Left_32 vdd vss gf180mcu_fd_sc_mcu7t5v0__endcap
XFILLER_0_7_2 vdd vdd vss vss gf180mcu_fd_sc_mcu7t5v0__fillcap_32
XFILLER_0_1_124 vdd vdd vss vss gf180mcu_fd_sc_mcu7t5v0__fill_1
XANTENNA_input1_I wb_rst_i vdd vdd vss vss gf180mcu_fd_sc_mcu7t5v0__antenna
XPHY_EDGE_ROW_0_Left_17 vdd vss gf180mcu_fd_sc_mcu7t5v0__endcap
Xwishbone_register_70 wbs_dat_o[31] vdd vdd vss vss gf180mcu_fd_sc_mcu7t5v0__tiel
X_44_ _17_ _20_ _21_ vdd vdd vss vss gf180mcu_fd_sc_mcu7t5v0__nand2_1
XPHY_EDGE_ROW_3_Left_20 vdd vss gf180mcu_fd_sc_mcu7t5v0__endcap
XFILLER_0_1_33 vdd vdd vss vss gf180mcu_fd_sc_mcu7t5v0__fill_2
X_27_ net17 net16 net19 net18 _07_ vdd vdd vss vss gf180mcu_fd_sc_mcu7t5v0__nor4_4
XFILLER_0_1_66 vdd vdd vss vss gf180mcu_fd_sc_mcu7t5v0__fill_2
XFILLER_0_15_133 vdd vdd vss vss gf180mcu_fd_sc_mcu7t5v0__fillcap_4
XFILLER_0_12_147 vdd vdd vss vss gf180mcu_fd_sc_mcu7t5v0__fillcap_4
XFILLER_0_9_6 vdd vdd vss vss gf180mcu_fd_sc_mcu7t5v0__fillcap_16
XFILLER_0_4_22 vdd vdd vss vss gf180mcu_fd_sc_mcu7t5v0__fillcap_8
X_43_ net36 net1 _20_ vdd vdd vss vss gf180mcu_fd_sc_mcu7t5v0__nor2_1
XANTENNA_clkbuf_0_wb_clk_i_I wb_clk_i vdd vdd vss vss gf180mcu_fd_sc_mcu7t5v0__antenna
Xwishbone_register_60 wbs_dat_o[21] vdd vdd vss vss gf180mcu_fd_sc_mcu7t5v0__tiel
XANTENNA_input32_I wbs_adr_i[8] vdd vdd vss vss gf180mcu_fd_sc_mcu7t5v0__antenna
X_26_ net21 net20 _06_ vdd vdd vss vss gf180mcu_fd_sc_mcu7t5v0__nor2_1
XPHY_EDGE_ROW_1_Right_1 vdd vss gf180mcu_fd_sc_mcu7t5v0__endcap
XFILLER_0_7_142 vdd vdd vss vss gf180mcu_fd_sc_mcu7t5v0__fill_2
Xoutput37 net37 reg_q_o vdd vdd vss vss gf180mcu_fd_sc_mcu7t5v0__clkbuf_4
XTAP_TAPCELL_ROW_16_70 vdd vss gf180mcu_fd_sc_mcu7t5v0__filltie
XFILLER_0_4_34 vdd vdd vss vss gf180mcu_fd_sc_mcu7t5v0__fill_1
Xwishbone_register_61 wbs_dat_o[22] vdd vdd vss vss gf180mcu_fd_sc_mcu7t5v0__tiel
Xwishbone_register_50 wbs_dat_o[11] vdd vdd vss vss gf180mcu_fd_sc_mcu7t5v0__tiel
XFILLER_0_10_37 vdd vdd vss vss gf180mcu_fd_sc_mcu7t5v0__fill_1
X_42_ net1 _01_ vdd vdd vss vss gf180mcu_fd_sc_mcu7t5v0__clkinv_1
XFILLER_0_1_79 vdd vdd vss vss gf180mcu_fd_sc_mcu7t5v0__fillcap_4
XFILLER_0_1_24 vdd vdd vss vss gf180mcu_fd_sc_mcu7t5v0__fill_2
X_25_ net35 _04_ _05_ vdd vdd vss vss gf180mcu_fd_sc_mcu7t5v0__nand2_1
XANTENNA_input25_I wbs_adr_i[30] vdd vdd vss vss gf180mcu_fd_sc_mcu7t5v0__antenna
XFILLER_0_16_36 vdd vdd vss vss gf180mcu_fd_sc_mcu7t5v0__fillcap_4
XFILLER_0_7_121 vdd vdd vss vss gf180mcu_fd_sc_mcu7t5v0__fillcap_16
Xoutput38 net38 wbs_ack_o vdd vdd vss vss gf180mcu_fd_sc_mcu7t5v0__buf_3
XFILLER_0_7_34 vdd vdd vss vss gf180mcu_fd_sc_mcu7t5v0__fill_2
XPHY_EDGE_ROW_15_Right_15 vdd vss gf180mcu_fd_sc_mcu7t5v0__endcap
XTAP_TAPCELL_ROW_16_71 vdd vss gf180mcu_fd_sc_mcu7t5v0__filltie
XFILLER_0_1_116 vdd vdd vss vss gf180mcu_fd_sc_mcu7t5v0__fillcap_4
XFILLER_0_5_2 vdd vdd vss vss gf180mcu_fd_sc_mcu7t5v0__fill_2
XFILLER_0_4_57 vdd vdd vss vss gf180mcu_fd_sc_mcu7t5v0__fill_2
X_41_ net1 _00_ vdd vdd vss vss gf180mcu_fd_sc_mcu7t5v0__clkinv_1
Xwishbone_register_62 wbs_dat_o[23] vdd vdd vss vss gf180mcu_fd_sc_mcu7t5v0__tiel
Xwishbone_register_40 wbs_dat_o[1] vdd vdd vss vss gf180mcu_fd_sc_mcu7t5v0__tiel
Xwishbone_register_51 wbs_dat_o[12] vdd vdd vss vss gf180mcu_fd_sc_mcu7t5v0__tiel
XFILLER_0_1_58 vdd vdd vss vss gf180mcu_fd_sc_mcu7t5v0__fill_2
XFILLER_0_1_47 vdd vdd vss vss gf180mcu_fd_sc_mcu7t5v0__fill_2
X_24_ net26 net25 _04_ vdd vdd vss vss gf180mcu_fd_sc_mcu7t5v0__nor2_1
XANTENNA_input18_I wbs_adr_i[24] vdd vdd vss vss gf180mcu_fd_sc_mcu7t5v0__antenna
XPHY_EDGE_ROW_7_Left_24 vdd vss gf180mcu_fd_sc_mcu7t5v0__endcap
XFILLER_0_12_139 vdd vdd vss vss gf180mcu_fd_sc_mcu7t5v0__fillcap_8
XFILLER_0_11_150 vdd vdd vss vss gf180mcu_fd_sc_mcu7t5v0__fill_2
Xoutput39 net39 wbs_dat_o[0] vdd vdd vss vss gf180mcu_fd_sc_mcu7t5v0__clkbuf_4
XFILLER_0_4_147 vdd vdd vss vss gf180mcu_fd_sc_mcu7t5v0__fillcap_4
XTAP_TAPCELL_ROW_3_42 vdd vss gf180mcu_fd_sc_mcu7t5v0__filltie
XFILLER_0_0_150 vdd vdd vss vss gf180mcu_fd_sc_mcu7t5v0__fill_2
XTAP_TAPCELL_ROW_13_62 vdd vss gf180mcu_fd_sc_mcu7t5v0__filltie
X_40_ _19_ _02_ vdd vdd vss vss gf180mcu_fd_sc_mcu7t5v0__clkbuf_1
XFILLER_0_10_28 vdd vdd vss vss gf180mcu_fd_sc_mcu7t5v0__fillcap_4
Xwishbone_register_52 wbs_dat_o[13] vdd vdd vss vss gf180mcu_fd_sc_mcu7t5v0__tiel
Xwishbone_register_41 wbs_dat_o[2] vdd vdd vss vss gf180mcu_fd_sc_mcu7t5v0__tiel
Xwishbone_register_63 wbs_dat_o[24] vdd vdd vss vss gf180mcu_fd_sc_mcu7t5v0__tiel
XFILLER_0_1_26 vdd vdd vss vss gf180mcu_fd_sc_mcu7t5v0__fill_1
XFILLER_0_11_82 vdd vdd vss vss gf180mcu_fd_sc_mcu7t5v0__fillcap_32
XFILLER_0_15_137 vdd vdd vss vss gf180mcu_fd_sc_mcu7t5v0__fill_2
XFILLER_0_12_107 vdd vdd vss vss gf180mcu_fd_sc_mcu7t5v0__fillcap_32
XANTENNA_input30_I wbs_adr_i[6] vdd vdd vss vss gf180mcu_fd_sc_mcu7t5v0__antenna
XFILLER_0_4_104 vdd vdd vss vss gf180mcu_fd_sc_mcu7t5v0__fill_1
XPHY_EDGE_ROW_5_Right_5 vdd vss gf180mcu_fd_sc_mcu7t5v0__endcap
XFILLER_0_1_107 vdd vdd vss vss gf180mcu_fd_sc_mcu7t5v0__fill_1
XTAP_TAPCELL_ROW_3_43 vdd vss gf180mcu_fd_sc_mcu7t5v0__filltie
XFILLER_0_4_59 vdd vdd vss vss gf180mcu_fd_sc_mcu7t5v0__fill_1
XFILLER_0_4_37 vdd vdd vss vss gf180mcu_fd_sc_mcu7t5v0__fillcap_16
XTAP_TAPCELL_ROW_13_63 vdd vss gf180mcu_fd_sc_mcu7t5v0__filltie
Xwishbone_register_42 wbs_dat_o[3] vdd vdd vss vss gf180mcu_fd_sc_mcu7t5v0__tiel
Xwishbone_register_53 wbs_dat_o[14] vdd vdd vss vss gf180mcu_fd_sc_mcu7t5v0__tiel
Xwishbone_register_64 wbs_dat_o[25] vdd vdd vss vss gf180mcu_fd_sc_mcu7t5v0__tiel
XFILLER_0_1_49 vdd vdd vss vss gf180mcu_fd_sc_mcu7t5v0__fill_1
XFILLER_0_11_72 vdd vdd vss vss gf180mcu_fd_sc_mcu7t5v0__fill_2
XANTENNA_input23_I wbs_adr_i[29] vdd vdd vss vss gf180mcu_fd_sc_mcu7t5v0__antenna
XFILLER_0_11_130 vdd vdd vss vss gf180mcu_fd_sc_mcu7t5v0__fillcap_8
XPHY_EDGE_ROW_11_Right_11 vdd vss gf180mcu_fd_sc_mcu7t5v0__endcap
XTAP_TAPCELL_ROW_0_34 vdd vss gf180mcu_fd_sc_mcu7t5v0__filltie
XTAP_TAPCELL_ROW_9_54 vdd vss gf180mcu_fd_sc_mcu7t5v0__filltie
Xwishbone_register_43 wbs_dat_o[4] vdd vdd vss vss gf180mcu_fd_sc_mcu7t5v0__tiel
Xwishbone_register_65 wbs_dat_o[26] vdd vdd vss vss gf180mcu_fd_sc_mcu7t5v0__tiel
Xwishbone_register_54 wbs_dat_o[15] vdd vdd vss vss gf180mcu_fd_sc_mcu7t5v0__tiel
XFILLER_0_15_117 vdd vdd vss vss gf180mcu_fd_sc_mcu7t5v0__fillcap_16
XFILLER_0_15_139 vdd vdd vss vss gf180mcu_fd_sc_mcu7t5v0__fill_1
XANTENNA_input16_I wbs_adr_i[22] vdd vdd vss vss gf180mcu_fd_sc_mcu7t5v0__antenna
XFILLER_0_2_71 vdd vdd vss vss gf180mcu_fd_sc_mcu7t5v0__fill_1
XFILLER_0_11_142 vdd vdd vss vss gf180mcu_fd_sc_mcu7t5v0__fillcap_8
XFILLER_0_4_139 vdd vdd vss vss gf180mcu_fd_sc_mcu7t5v0__fillcap_8
XANTENNA_input8_I wbs_adr_i[15] vdd vdd vss vss gf180mcu_fd_sc_mcu7t5v0__antenna
XFILLER_0_5_6 vdd vdd vss vss gf180mcu_fd_sc_mcu7t5v0__fillcap_32
Xwishbone_register_55 wbs_dat_o[16] vdd vdd vss vss gf180mcu_fd_sc_mcu7t5v0__tiel
XTAP_TAPCELL_ROW_0_35 vdd vss gf180mcu_fd_sc_mcu7t5v0__filltie
XTAP_TAPCELL_ROW_9_55 vdd vss gf180mcu_fd_sc_mcu7t5v0__filltie
Xwishbone_register_44 wbs_dat_o[5] vdd vdd vss vss gf180mcu_fd_sc_mcu7t5v0__tiel
Xwishbone_register_66 wbs_dat_o[27] vdd vdd vss vss gf180mcu_fd_sc_mcu7t5v0__tiel
XFILLER_0_1_29 vdd vdd vss vss gf180mcu_fd_sc_mcu7t5v0__fill_2
XFILLER_0_1_18 vdd vdd vss vss gf180mcu_fd_sc_mcu7t5v0__fillcap_4
XFILLER_0_11_30 vdd vdd vss vss gf180mcu_fd_sc_mcu7t5v0__fillcap_4
Xinput1 wb_rst_i net1 vdd vdd vss vss gf180mcu_fd_sc_mcu7t5v0__clkbuf_1
XFILLER_0_14_151 vdd vdd vss vss gf180mcu_fd_sc_mcu7t5v0__fill_1
XPHY_EDGE_ROW_11_Left_28 vdd vss gf180mcu_fd_sc_mcu7t5v0__endcap
XFILLER_0_7_137 vdd vdd vss vss gf180mcu_fd_sc_mcu7t5v0__fill_2
XFILLER_0_4_107 vdd vdd vss vss gf180mcu_fd_sc_mcu7t5v0__fillcap_32
XPHY_EDGE_ROW_9_Right_9 vdd vss gf180mcu_fd_sc_mcu7t5v0__endcap
XPHY_EDGE_ROW_14_Left_31 vdd vss gf180mcu_fd_sc_mcu7t5v0__endcap
XFILLER_0_14_30 vdd vdd vss vss gf180mcu_fd_sc_mcu7t5v0__fillcap_4
XTAP_TAPCELL_ROW_0_36 vdd vss gf180mcu_fd_sc_mcu7t5v0__filltie
Xwishbone_register_56 wbs_dat_o[17] vdd vdd vss vss gf180mcu_fd_sc_mcu7t5v0__tiel
Xwishbone_register_45 wbs_dat_o[6] vdd vdd vss vss gf180mcu_fd_sc_mcu7t5v0__tiel
Xwishbone_register_67 wbs_dat_o[28] vdd vdd vss vss gf180mcu_fd_sc_mcu7t5v0__tiel
XFILLER_0_5_50 vdd vdd vss vss gf180mcu_fd_sc_mcu7t5v0__fill_2
XFILLER_0_5_72 vdd vdd vss vss gf180mcu_fd_sc_mcu7t5v0__fill_2
Xinput2 wbs_adr_i[0] net2 vdd vdd vss vss gf180mcu_fd_sc_mcu7t5v0__clkbuf_1
XTAP_TAPCELL_ROW_10_56 vdd vss gf180mcu_fd_sc_mcu7t5v0__filltie
XANTENNA_input21_I wbs_adr_i[27] vdd vdd vss vss gf180mcu_fd_sc_mcu7t5v0__antenna
XTAP_TAPCELL_ROW_0_37 vdd vss gf180mcu_fd_sc_mcu7t5v0__filltie
XFILLER_0_12_2 vdd vdd vss vss gf180mcu_fd_sc_mcu7t5v0__fillcap_32
Xwishbone_register_68 wbs_dat_o[29] vdd vdd vss vss gf180mcu_fd_sc_mcu7t5v0__tiel
Xwishbone_register_46 wbs_dat_o[7] vdd vdd vss vss gf180mcu_fd_sc_mcu7t5v0__tiel
Xwishbone_register_57 wbs_dat_o[18] vdd vdd vss vss gf180mcu_fd_sc_mcu7t5v0__tiel
Xinput3 wbs_adr_i[10] net3 vdd vdd vss vss gf180mcu_fd_sc_mcu7t5v0__clkbuf_1
XTAP_TAPCELL_ROW_10_57 vdd vss gf180mcu_fd_sc_mcu7t5v0__filltie
XFILLER_0_7_139 vdd vdd vss vss gf180mcu_fd_sc_mcu7t5v0__fill_1
XFILLER_0_2_30 vdd vdd vss vss gf180mcu_fd_sc_mcu7t5v0__fillcap_4
XANTENNA_input14_I wbs_adr_i[20] vdd vdd vss vss gf180mcu_fd_sc_mcu7t5v0__antenna
XFILLER_0_3_120 vdd vdd vss vss gf180mcu_fd_sc_mcu7t5v0__fillcap_16
XFILLER_0_3_142 vdd vdd vss vss gf180mcu_fd_sc_mcu7t5v0__fill_2
XPHY_EDGE_ROW_0_Right_0 vdd vss gf180mcu_fd_sc_mcu7t5v0__endcap
XFILLER_0_0_134 vdd vdd vss vss gf180mcu_fd_sc_mcu7t5v0__fill_2
XANTENNA_input6_I wbs_adr_i[13] vdd vdd vss vss gf180mcu_fd_sc_mcu7t5v0__antenna
XFILLER_0_14_6 vdd vdd vss vss gf180mcu_fd_sc_mcu7t5v0__fillcap_16
XFILLER_0_3_6 vdd vdd vss vss gf180mcu_fd_sc_mcu7t5v0__fill_2
Xwishbone_register_69 wbs_dat_o[30] vdd vdd vss vss gf180mcu_fd_sc_mcu7t5v0__tiel
Xwishbone_register_58 wbs_dat_o[19] vdd vdd vss vss gf180mcu_fd_sc_mcu7t5v0__tiel
Xwishbone_register_47 wbs_dat_o[8] vdd vdd vss vss gf180mcu_fd_sc_mcu7t5v0__tiel
XFILLER_0_5_74 vdd vdd vss vss gf180mcu_fd_sc_mcu7t5v0__fill_1
Xinput4 wbs_adr_i[11] net4 vdd vdd vss vss gf180mcu_fd_sc_mcu7t5v0__clkbuf_1
XFILLER_0_11_22 vdd vdd vss vss gf180mcu_fd_sc_mcu7t5v0__fillcap_8
XTAP_TAPCELL_ROW_6_48 vdd vss gf180mcu_fd_sc_mcu7t5v0__filltie
XTAP_TAPCELL_ROW_16_68 vdd vss gf180mcu_fd_sc_mcu7t5v0__filltie
XFILLER_0_14_22 vdd vdd vss vss gf180mcu_fd_sc_mcu7t5v0__fillcap_8
Xwishbone_register_59 wbs_dat_o[20] vdd vdd vss vss gf180mcu_fd_sc_mcu7t5v0__tiel
Xwishbone_register_48 wbs_dat_o[9] vdd vdd vss vss gf180mcu_fd_sc_mcu7t5v0__tiel
Xinput5 wbs_adr_i[12] net5 vdd vdd vss vss gf180mcu_fd_sc_mcu7t5v0__clkbuf_1
XFILLER_0_11_34 vdd vdd vss vss gf180mcu_fd_sc_mcu7t5v0__fill_2
XTAP_TAPCELL_ROW_6_49 vdd vss gf180mcu_fd_sc_mcu7t5v0__filltie
XFILLER_0_11_114 vdd vdd vss vss gf180mcu_fd_sc_mcu7t5v0__fillcap_16
XPHY_EDGE_ROW_6_Left_23 vdd vss gf180mcu_fd_sc_mcu7t5v0__endcap
XTAP_TAPCELL_ROW_16_69 vdd vss gf180mcu_fd_sc_mcu7t5v0__filltie
Xinput30 wbs_adr_i[6] net30 vdd vdd vss vss gf180mcu_fd_sc_mcu7t5v0__clkbuf_1
XFILLER_0_14_34 vdd vdd vss vss gf180mcu_fd_sc_mcu7t5v0__fill_1
XFILLER_0_14_89 vdd vdd vss vss gf180mcu_fd_sc_mcu7t5v0__fillcap_16
Xwishbone_register_49 wbs_dat_o[10] vdd vdd vss vss gf180mcu_fd_sc_mcu7t5v0__tiel
Xinput6 wbs_adr_i[13] net6 vdd vdd vss vss gf180mcu_fd_sc_mcu7t5v0__clkbuf_1
XFILLER_0_9_150 vdd vdd vss vss gf180mcu_fd_sc_mcu7t5v0__fill_2
XPHY_EDGE_ROW_14_Right_14 vdd vss gf180mcu_fd_sc_mcu7t5v0__endcap
XFILLER_0_2_22 vdd vdd vss vss gf180mcu_fd_sc_mcu7t5v0__fillcap_8
XFILLER_0_2_88 vdd vdd vss vss gf180mcu_fd_sc_mcu7t5v0__fillcap_16
Xinput20 wbs_adr_i[26] net20 vdd vdd vss vss gf180mcu_fd_sc_mcu7t5v0__clkbuf_1
Xinput31 wbs_adr_i[7] net31 vdd vdd vss vss gf180mcu_fd_sc_mcu7t5v0__clkbuf_1
XPHY_EDGE_ROW_4_Right_4 vdd vss gf180mcu_fd_sc_mcu7t5v0__endcap
XANTENNA_input12_I wbs_adr_i[19] vdd vdd vss vss gf180mcu_fd_sc_mcu7t5v0__antenna
XANTENNA_input4_I wbs_adr_i[11] vdd vdd vss vss gf180mcu_fd_sc_mcu7t5v0__antenna
XFILLER_0_11_36 vdd vdd vss vss gf180mcu_fd_sc_mcu7t5v0__fill_1
Xinput7 wbs_adr_i[14] net7 vdd vdd vss vss gf180mcu_fd_sc_mcu7t5v0__clkbuf_1
XFILLER_0_2_12 vdd vdd vss vss gf180mcu_fd_sc_mcu7t5v0__fillcap_4
XFILLER_0_2_34 vdd vdd vss vss gf180mcu_fd_sc_mcu7t5v0__fill_1
XFILLER_0_11_138 vdd vdd vss vss gf180mcu_fd_sc_mcu7t5v0__fill_2
XTAP_TAPCELL_ROW_7_50 vdd vss gf180mcu_fd_sc_mcu7t5v0__filltie
Xinput21 wbs_adr_i[27] net21 vdd vdd vss vss gf180mcu_fd_sc_mcu7t5v0__clkbuf_1
Xinput10 wbs_adr_i[17] net10 vdd vdd vss vss gf180mcu_fd_sc_mcu7t5v0__clkbuf_1
Xinput32 wbs_adr_i[8] net32 vdd vdd vss vss gf180mcu_fd_sc_mcu7t5v0__clkbuf_1
XFILLER_0_3_146 vdd vdd vss vss gf180mcu_fd_sc_mcu7t5v0__fillcap_4
Xinput8 wbs_adr_i[15] net8 vdd vdd vss vss gf180mcu_fd_sc_mcu7t5v0__clkbuf_1
XFILLER_0_14_147 vdd vdd vss vss gf180mcu_fd_sc_mcu7t5v0__fillcap_4
XANTENNA_input35_I wbs_stb_i vdd vdd vss vss gf180mcu_fd_sc_mcu7t5v0__antenna
Xinput33 wbs_adr_i[9] net33 vdd vdd vss vss gf180mcu_fd_sc_mcu7t5v0__clkbuf_1
Xinput11 wbs_adr_i[18] net11 vdd vdd vss vss gf180mcu_fd_sc_mcu7t5v0__clkbuf_1
XFILLER_0_3_136 vdd vdd vss vss gf180mcu_fd_sc_mcu7t5v0__fillcap_4
Xinput22 wbs_adr_i[28] net22 vdd vdd vss vss gf180mcu_fd_sc_mcu7t5v0__clkbuf_1
XTAP_TAPCELL_ROW_7_51 vdd vss gf180mcu_fd_sc_mcu7t5v0__filltie
X_39_ net34 net37 _18_ _19_ vdd vdd vss vss gf180mcu_fd_sc_mcu7t5v0__mux2_2
XFILLER_0_8_34 vdd vdd vss vss gf180mcu_fd_sc_mcu7t5v0__fill_1
XFILLER_0_14_37 vdd vdd vss vss gf180mcu_fd_sc_mcu7t5v0__fill_2
XFILLER_0_5_46 vdd vdd vss vss gf180mcu_fd_sc_mcu7t5v0__fillcap_4
XFILLER_0_15_80 vdd vdd vss vss gf180mcu_fd_sc_mcu7t5v0__fill_2
Xinput9 wbs_adr_i[16] net9 vdd vdd vss vss gf180mcu_fd_sc_mcu7t5v0__clkbuf_1
XFILLER_0_9_142 vdd vdd vss vss gf180mcu_fd_sc_mcu7t5v0__fillcap_8
XFILLER_0_2_69 vdd vdd vss vss gf180mcu_fd_sc_mcu7t5v0__fill_2
XPHY_EDGE_ROW_10_Right_10 vdd vss gf180mcu_fd_sc_mcu7t5v0__endcap
XANTENNA_input28_I wbs_adr_i[4] vdd vdd vss vss gf180mcu_fd_sc_mcu7t5v0__antenna
XFILLER_0_10_151 vdd vdd vss vss gf180mcu_fd_sc_mcu7t5v0__fill_1
Xinput34 wbs_dat_i[0] net34 vdd vdd vss vss gf180mcu_fd_sc_mcu7t5v0__clkbuf_1
Xinput12 wbs_adr_i[19] net12 vdd vdd vss vss gf180mcu_fd_sc_mcu7t5v0__buf_1
Xinput23 wbs_adr_i[29] net23 vdd vdd vss vss gf180mcu_fd_sc_mcu7t5v0__clkbuf_1
XPHY_EDGE_ROW_10_Left_27 vdd vss gf180mcu_fd_sc_mcu7t5v0__endcap
X_38_ net36 _17_ _18_ vdd vdd vss vss gf180mcu_fd_sc_mcu7t5v0__nand2_1
XPHY_EDGE_ROW_8_Right_8 vdd vss gf180mcu_fd_sc_mcu7t5v0__endcap
XANTENNA_input10_I wbs_adr_i[17] vdd vdd vss vss gf180mcu_fd_sc_mcu7t5v0__antenna
XPHY_EDGE_ROW_13_Left_30 vdd vss gf180mcu_fd_sc_mcu7t5v0__endcap
XFILLER_0_8_2 vdd vdd vss vss gf180mcu_fd_sc_mcu7t5v0__fillcap_32
XANTENNA_input2_I wbs_adr_i[0] vdd vdd vss vss gf180mcu_fd_sc_mcu7t5v0__antenna
XFILLER_0_2_37 vdd vdd vss vss gf180mcu_fd_sc_mcu7t5v0__fillcap_32
Xinput13 wbs_adr_i[1] net13 vdd vdd vss vss gf180mcu_fd_sc_mcu7t5v0__clkbuf_1
Xinput24 wbs_adr_i[2] net24 vdd vdd vss vss gf180mcu_fd_sc_mcu7t5v0__clkbuf_1
Xinput35 wbs_stb_i net35 vdd vdd vss vss gf180mcu_fd_sc_mcu7t5v0__clkbuf_1
X_37_ _05_ _08_ _11_ _16_ _17_ vdd vdd vss vss gf180mcu_fd_sc_mcu7t5v0__nor4_4
XFILLER_0_0_70 vdd vdd vss vss gf180mcu_fd_sc_mcu7t5v0__fill_2
XFILLER_0_15_82 vdd vdd vss vss gf180mcu_fd_sc_mcu7t5v0__fill_1
XFILLER_0_14_139 vdd vdd vss vss gf180mcu_fd_sc_mcu7t5v0__fillcap_8
XFILLER_0_13_150 vdd vdd vss vss gf180mcu_fd_sc_mcu7t5v0__fill_2
Xinput25 wbs_adr_i[30] net25 vdd vdd vss vss gf180mcu_fd_sc_mcu7t5v0__clkbuf_1
Xinput14 wbs_adr_i[20] net14 vdd vdd vss vss gf180mcu_fd_sc_mcu7t5v0__clkbuf_1
Xinput36 wbs_we_i net36 vdd vdd vss vss gf180mcu_fd_sc_mcu7t5v0__clkbuf_1
X_36_ _12_ _13_ _14_ _15_ _16_ vdd vdd vss vss gf180mcu_fd_sc_mcu7t5v0__nand4_2
XANTENNA_input33_I wbs_adr_i[9] vdd vdd vss vss gf180mcu_fd_sc_mcu7t5v0__antenna
XFILLER_0_8_37 vdd vdd vss vss gf180mcu_fd_sc_mcu7t5v0__fillcap_16
XTAP_TAPCELL_ROW_4_44 vdd vss gf180mcu_fd_sc_mcu7t5v0__filltie
XFILLER_0_9_80 vdd vdd vss vss gf180mcu_fd_sc_mcu7t5v0__fill_2
XFILLER_0_5_38 vdd vdd vss vss gf180mcu_fd_sc_mcu7t5v0__fillcap_8
XFILLER_0_10_8 vdd vdd vss vss gf180mcu_fd_sc_mcu7t5v0__fill_2
XFILLER_0_15_72 vdd vdd vss vss gf180mcu_fd_sc_mcu7t5v0__fillcap_8
XTAP_TAPCELL_ROW_14_64 vdd vss gf180mcu_fd_sc_mcu7t5v0__filltie
XFILLER_0_14_107 vdd vdd vss vss gf180mcu_fd_sc_mcu7t5v0__fillcap_32
Xinput26 wbs_adr_i[31] net26 vdd vdd vss vss gf180mcu_fd_sc_mcu7t5v0__clkbuf_1
Xinput15 wbs_adr_i[21] net15 vdd vdd vss vss gf180mcu_fd_sc_mcu7t5v0__clkbuf_1
X_35_ net12 net11 net15 net14 _15_ vdd vdd vss vss gf180mcu_fd_sc_mcu7t5v0__nor4_4
XANTENNA_input26_I wbs_adr_i[31] vdd vdd vss vss gf180mcu_fd_sc_mcu7t5v0__antenna
XTAP_TAPCELL_ROW_4_45 vdd vss gf180mcu_fd_sc_mcu7t5v0__filltie
XFILLER_0_0_72 vdd vdd vss vss gf180mcu_fd_sc_mcu7t5v0__fill_1
XFILLER_0_15_51 vdd vdd vss vss gf180mcu_fd_sc_mcu7t5v0__fill_2
XTAP_TAPCELL_ROW_14_65 vdd vss gf180mcu_fd_sc_mcu7t5v0__filltie
XPHY_EDGE_ROW_2_Left_19 vdd vss gf180mcu_fd_sc_mcu7t5v0__endcap
XFILLER_0_9_135 vdd vdd vss vss gf180mcu_fd_sc_mcu7t5v0__fillcap_4
XFILLER_0_2_18 vdd vdd vss vss gf180mcu_fd_sc_mcu7t5v0__fill_2
Xinput16 wbs_adr_i[22] net16 vdd vdd vss vss gf180mcu_fd_sc_mcu7t5v0__clkbuf_1
Xinput27 wbs_adr_i[3] net27 vdd vdd vss vss gf180mcu_fd_sc_mcu7t5v0__clkbuf_1
X_34_ net8 net7 net10 net9 _14_ vdd vdd vss vss gf180mcu_fd_sc_mcu7t5v0__nor4_4
XANTENNA_input19_I wbs_adr_i[25] vdd vdd vss vss gf180mcu_fd_sc_mcu7t5v0__antenna
XFILLER_0_3_72 vdd vdd vss vss gf180mcu_fd_sc_mcu7t5v0__fillcap_4
XPHY_EDGE_ROW_5_Left_22 vdd vss gf180mcu_fd_sc_mcu7t5v0__endcap
Xclkbuf_0_wb_clk_i wb_clk_i clknet_0_wb_clk_i vdd vdd vss vss gf180mcu_fd_sc_mcu7t5v0__clkbuf_16
XFILLER_0_9_82 vdd vdd vss vss gf180mcu_fd_sc_mcu7t5v0__fill_1
XFILLER_0_15_41 vdd vdd vss vss gf180mcu_fd_sc_mcu7t5v0__fill_2
XFILLER_0_15_85 vdd vdd vss vss gf180mcu_fd_sc_mcu7t5v0__fillcap_32
XFILLER_0_16_150 vdd vdd vss vss gf180mcu_fd_sc_mcu7t5v0__fill_2
XFILLER_0_9_103 vdd vdd vss vss gf180mcu_fd_sc_mcu7t5v0__fillcap_32
XFILLER_0_6_94 vdd vdd vss vss gf180mcu_fd_sc_mcu7t5v0__fillcap_4
XFILLER_0_13_142 vdd vdd vss vss gf180mcu_fd_sc_mcu7t5v0__fillcap_8
XFILLER_0_6_139 vdd vdd vss vss gf180mcu_fd_sc_mcu7t5v0__fill_1
Xinput28 wbs_adr_i[4] net28 vdd vdd vss vss gf180mcu_fd_sc_mcu7t5v0__clkbuf_1
X_33_ net31 net30 net33 net32 _13_ vdd vdd vss vss gf180mcu_fd_sc_mcu7t5v0__nor4_2
Xinput17 wbs_adr_i[23] net17 vdd vdd vss vss gf180mcu_fd_sc_mcu7t5v0__clkbuf_1
XFILLER_0_2_142 vdd vdd vss vss gf180mcu_fd_sc_mcu7t5v0__fill_2
XANTENNA_input31_I wbs_adr_i[7] vdd vdd vss vss gf180mcu_fd_sc_mcu7t5v0__antenna
XPHY_EDGE_ROW_3_Right_3 vdd vss gf180mcu_fd_sc_mcu7t5v0__endcap
XFILLER_0_9_72 vdd vdd vss vss gf180mcu_fd_sc_mcu7t5v0__fill_2
XFILLER_0_15_31 vdd vdd vss vss gf180mcu_fd_sc_mcu7t5v0__fillcap_4
XFILLER_0_6_107 vdd vdd vss vss gf180mcu_fd_sc_mcu7t5v0__fillcap_32
XFILLER_0_10_102 vdd vdd vss vss gf180mcu_fd_sc_mcu7t5v0__fill_2
Xinput18 wbs_adr_i[24] net18 vdd vdd vss vss gf180mcu_fd_sc_mcu7t5v0__clkbuf_1
Xinput29 wbs_adr_i[5] net29 vdd vdd vss vss gf180mcu_fd_sc_mcu7t5v0__clkbuf_1
X_32_ net4 net3 net6 net5 _12_ vdd vdd vss vss gf180mcu_fd_sc_mcu7t5v0__nor4_2
XANTENNA_input24_I wbs_adr_i[2] vdd vdd vss vss gf180mcu_fd_sc_mcu7t5v0__antenna
XFILLER_0_0_97 vdd vdd vss vss gf180mcu_fd_sc_mcu7t5v0__fill_2
XPHY_EDGE_ROW_13_Right_13 vdd vss gf180mcu_fd_sc_mcu7t5v0__endcap
XFILLER_0_15_65 vdd vdd vss vss gf180mcu_fd_sc_mcu7t5v0__fillcap_4
XTAP_TAPCELL_ROW_1_38 vdd vss gf180mcu_fd_sc_mcu7t5v0__filltie
XFILLER_0_6_41 vdd vdd vss vss gf180mcu_fd_sc_mcu7t5v0__fill_2
XFILLER_0_4_2 vdd vdd vss vss gf180mcu_fd_sc_mcu7t5v0__fill_2
XFILLER_0_10_147 vdd vdd vss vss gf180mcu_fd_sc_mcu7t5v0__fillcap_4
XTAP_TAPCELL_ROW_11_58 vdd vss gf180mcu_fd_sc_mcu7t5v0__filltie
Xinput19 wbs_adr_i[25] net19 vdd vdd vss vss gf180mcu_fd_sc_mcu7t5v0__clkbuf_1
X_31_ _09_ _10_ _11_ vdd vdd vss vss gf180mcu_fd_sc_mcu7t5v0__nand2_1
X_48__71 net71 vdd vdd vss vss gf180mcu_fd_sc_mcu7t5v0__tieh
XANTENNA_input17_I wbs_adr_i[23] vdd vdd vss vss gf180mcu_fd_sc_mcu7t5v0__antenna
XPHY_EDGE_ROW_9_Left_26 vdd vss gf180mcu_fd_sc_mcu7t5v0__endcap
XANTENNA_input9_I wbs_adr_i[16] vdd vdd vss vss gf180mcu_fd_sc_mcu7t5v0__antenna
XFILLER_0_9_30 vdd vdd vss vss gf180mcu_fd_sc_mcu7t5v0__fillcap_4
XFILLER_0_9_74 vdd vdd vss vss gf180mcu_fd_sc_mcu7t5v0__fill_1
XFILLER_0_15_55 vdd vdd vss vss gf180mcu_fd_sc_mcu7t5v0__fillcap_4
XFILLER_0_16_131 vdd vdd vss vss gf180mcu_fd_sc_mcu7t5v0__fill_1
XTAP_TAPCELL_ROW_1_39 vdd vss gf180mcu_fd_sc_mcu7t5v0__filltie
XFILLER_0_9_139 vdd vdd vss vss gf180mcu_fd_sc_mcu7t5v0__fill_1
XFILLER_0_10_104 vdd vdd vss vss gf180mcu_fd_sc_mcu7t5v0__fill_1
XFILLER_0_12_34 vdd vdd vss vss gf180mcu_fd_sc_mcu7t5v0__fill_1
XTAP_TAPCELL_ROW_11_59 vdd vss gf180mcu_fd_sc_mcu7t5v0__filltie
XFILLER_0_5_142 vdd vdd vss vss gf180mcu_fd_sc_mcu7t5v0__fillcap_4
X_30_ net27 net24 net29 net28 _10_ vdd vdd vss vss gf180mcu_fd_sc_mcu7t5v0__nor4_2
XFILLER_0_2_123 vdd vdd vss vss gf180mcu_fd_sc_mcu7t5v0__fill_2
XFILLER_0_3_10 vdd vdd vss vss gf180mcu_fd_sc_mcu7t5v0__fill_2
XFILLER_0_3_76 vdd vdd vss vss gf180mcu_fd_sc_mcu7t5v0__fill_1
XFILLER_0_0_99 vdd vdd vss vss gf180mcu_fd_sc_mcu7t5v0__fill_1
XFILLER_0_15_23 vdd vdd vss vss gf180mcu_fd_sc_mcu7t5v0__fillcap_8