*SPEF "ieee 1481-1999"
*DESIGN "manchester_baby"
*DATE "11:11:11 Fri 11 11, 1111"
*VENDOR "OpenRCX"
*PROGRAM "Parallel Extraction"
*VERSION "1.0"
*DESIGN_FLOW "NAME_SCOPE LOCAL" "PIN_CAP NONE"
*DIVIDER /
*DELIMITER :
*BUS_DELIMITER []
*T_UNIT 1 NS
*C_UNIT 1 PF
*R_UNIT 1 OHM
*L_UNIT 1 HENRY

*NAME_MAP
*1 clock
*2 logisim_clock_tree_0_out
*3 ram_addr_o[0]
*4 ram_addr_o[1]
*5 ram_addr_o[2]
*6 ram_addr_o[3]
*7 ram_addr_o[4]
*8 ram_data_i[0]
*9 ram_data_i[10]
*10 ram_data_i[11]
*11 ram_data_i[12]
*12 ram_data_i[13]
*13 ram_data_i[14]
*14 ram_data_i[15]
*15 ram_data_i[16]
*16 ram_data_i[17]
*17 ram_data_i[18]
*18 ram_data_i[19]
*19 ram_data_i[1]
*20 ram_data_i[20]
*21 ram_data_i[21]
*22 ram_data_i[22]
*23 ram_data_i[23]
*24 ram_data_i[24]
*25 ram_data_i[25]
*26 ram_data_i[26]
*27 ram_data_i[27]
*28 ram_data_i[28]
*29 ram_data_i[29]
*30 ram_data_i[2]
*31 ram_data_i[30]
*32 ram_data_i[31]
*33 ram_data_i[3]
*34 ram_data_i[4]
*35 ram_data_i[5]
*36 ram_data_i[6]
*37 ram_data_i[7]
*38 ram_data_i[8]
*39 ram_data_i[9]
*40 ram_data_o[0]
*41 ram_data_o[10]
*42 ram_data_o[11]
*43 ram_data_o[12]
*44 ram_data_o[13]
*45 ram_data_o[14]
*46 ram_data_o[15]
*47 ram_data_o[16]
*48 ram_data_o[17]
*49 ram_data_o[18]
*50 ram_data_o[19]
*51 ram_data_o[1]
*52 ram_data_o[20]
*53 ram_data_o[21]
*54 ram_data_o[22]
*55 ram_data_o[23]
*56 ram_data_o[24]
*57 ram_data_o[25]
*58 ram_data_o[26]
*59 ram_data_o[27]
*60 ram_data_o[28]
*61 ram_data_o[29]
*62 ram_data_o[2]
*63 ram_data_o[30]
*64 ram_data_o[31]
*65 ram_data_o[3]
*66 ram_data_o[4]
*67 ram_data_o[5]
*68 ram_data_o[6]
*69 ram_data_o[7]
*70 ram_data_o[8]
*71 ram_data_o[9]
*72 ram_rw_en_o
*73 reset_i
*74 stop_lamp_o
*77 _0000_
*78 _0001_
*79 _0002_
*80 _0003_
*81 _0004_
*82 _0005_
*83 _0006_
*84 _0007_
*85 _0008_
*86 _0009_
*87 _0010_
*88 _0011_
*89 _0012_
*90 _0013_
*91 _0014_
*92 _0015_
*93 _0016_
*94 _0017_
*95 _0018_
*96 _0019_
*97 _0020_
*98 _0021_
*99 _0022_
*100 _0023_
*101 _0024_
*102 _0025_
*103 _0026_
*104 _0027_
*105 _0028_
*106 _0029_
*107 _0030_
*108 _0031_
*109 _0032_
*110 _0033_
*111 _0034_
*112 _0035_
*113 _0036_
*114 _0037_
*115 _0038_
*116 _0039_
*117 _0040_
*118 _0041_
*119 _0042_
*120 _0043_
*121 _0044_
*122 _0045_
*123 _0046_
*124 _0047_
*125 _0048_
*126 _0049_
*127 _0050_
*128 _0051_
*129 _0052_
*130 _0053_
*131 _0054_
*132 _0055_
*133 _0056_
*134 _0057_
*135 _0058_
*136 _0059_
*137 _0060_
*138 _0061_
*139 _0062_
*140 _0063_
*141 _0064_
*142 _0065_
*143 _0066_
*144 _0067_
*145 _0068_
*146 _0069_
*147 _0070_
*148 _0071_
*149 _0072_
*150 _0073_
*151 _0074_
*152 _0075_
*153 _0076_
*154 _0077_
*155 _0078_
*156 _0079_
*157 _0080_
*158 _0081_
*159 _0082_
*160 _0083_
*161 _0084_
*162 _0085_
*163 _0086_
*164 _0087_
*165 _0088_
*166 _0089_
*167 _0090_
*168 _0091_
*169 _0092_
*170 _0093_
*171 _0094_
*172 _0095_
*173 _0096_
*174 _0097_
*175 _0098_
*176 _0099_
*177 _0100_
*178 _0101_
*179 _0102_
*180 _0103_
*181 _0104_
*182 _0105_
*183 _0106_
*184 _0107_
*185 _0108_
*186 _0109_
*187 _0110_
*188 _0111_
*189 _0112_
*190 _0113_
*191 _0114_
*192 _0115_
*193 _0116_
*194 _0117_
*195 _0118_
*196 _0119_
*197 _0120_
*198 _0121_
*199 _0122_
*200 _0123_
*201 _0124_
*202 _0125_
*203 _0126_
*204 _0127_
*205 _0128_
*206 _0129_
*207 _0130_
*208 _0131_
*209 _0132_
*210 _0133_
*211 _0134_
*212 _0135_
*213 _0136_
*214 _0137_
*215 _0138_
*216 _0139_
*217 _0140_
*218 _0141_
*219 _0142_
*220 _0143_
*221 _0144_
*222 _0145_
*223 _0146_
*224 _0147_
*225 _0148_
*226 _0149_
*227 _0150_
*228 _0151_
*229 _0152_
*230 _0153_
*231 _0154_
*232 _0155_
*233 _0156_
*234 _0157_
*235 _0158_
*236 _0159_
*237 _0160_
*238 _0161_
*239 _0162_
*240 _0163_
*241 _0164_
*242 _0165_
*243 _0166_
*244 _0167_
*245 _0168_
*246 _0169_
*247 _0170_
*248 _0171_
*249 _0172_
*250 _0173_
*251 _0174_
*252 _0175_
*253 _0176_
*254 _0177_
*255 _0178_
*256 _0179_
*257 _0180_
*258 _0181_
*259 _0182_
*260 _0183_
*261 _0184_
*262 _0185_
*263 _0186_
*264 _0187_
*265 _0188_
*266 _0189_
*267 _0190_
*268 _0191_
*269 _0192_
*270 _0193_
*271 _0194_
*272 _0195_
*273 _0196_
*274 _0197_
*275 _0198_
*276 _0199_
*277 _0200_
*278 _0201_
*279 _0202_
*280 _0203_
*281 _0204_
*282 _0205_
*283 _0206_
*284 _0207_
*285 _0208_
*286 _0209_
*287 _0210_
*288 _0211_
*289 _0212_
*290 _0213_
*291 _0214_
*292 _0215_
*293 _0216_
*294 _0217_
*295 _0218_
*296 _0219_
*297 _0220_
*298 _0221_
*299 _0222_
*300 _0223_
*301 _0224_
*302 _0225_
*303 _0226_
*304 _0227_
*305 _0228_
*306 _0229_
*307 _0230_
*308 _0231_
*309 _0232_
*310 _0233_
*311 _0234_
*312 _0235_
*313 _0236_
*314 _0237_
*315 _0238_
*316 _0239_
*317 _0240_
*318 _0241_
*319 _0242_
*320 _0243_
*321 _0244_
*322 _0245_
*323 _0246_
*324 _0247_
*325 _0248_
*326 _0249_
*327 _0250_
*328 _0251_
*329 _0252_
*330 _0253_
*331 _0254_
*332 _0255_
*333 _0256_
*334 _0257_
*335 _0258_
*336 _0259_
*337 _0260_
*338 _0261_
*339 _0262_
*340 _0263_
*341 _0264_
*342 _0265_
*343 _0266_
*344 _0267_
*345 _0268_
*346 _0269_
*347 _0270_
*348 _0271_
*349 _0272_
*350 _0273_
*351 _0274_
*352 _0275_
*353 _0276_
*354 _0277_
*355 _0278_
*356 _0279_
*357 _0280_
*358 _0281_
*359 _0282_
*360 _0283_
*361 _0284_
*362 _0285_
*363 _0286_
*364 _0287_
*365 _0288_
*366 _0289_
*367 _0290_
*368 _0291_
*369 _0292_
*370 _0293_
*371 _0294_
*372 _0295_
*373 _0296_
*374 _0297_
*375 _0298_
*376 _0299_
*377 _0300_
*378 _0301_
*379 _0302_
*380 _0303_
*381 _0304_
*382 _0305_
*383 _0306_
*384 _0307_
*385 _0308_
*386 _0309_
*387 _0310_
*388 _0311_
*389 _0312_
*390 _0313_
*391 _0314_
*392 _0315_
*393 _0316_
*394 _0317_
*395 _0318_
*396 _0319_
*397 _0320_
*398 _0321_
*399 _0322_
*400 _0323_
*401 _0324_
*402 _0325_
*403 _0326_
*404 _0327_
*405 _0328_
*406 _0329_
*407 _0330_
*408 _0331_
*409 _0332_
*410 _0333_
*411 _0334_
*412 _0335_
*413 _0336_
*414 _0337_
*415 _0338_
*416 _0339_
*417 _0340_
*418 _0341_
*419 _0342_
*420 _0343_
*421 _0344_
*422 _0345_
*423 _0346_
*424 _0347_
*425 _0348_
*426 _0349_
*427 _0350_
*428 _0351_
*429 _0352_
*430 _0353_
*431 _0354_
*432 _0355_
*433 _0356_
*434 _0357_
*435 _0358_
*436 _0359_
*437 _0360_
*438 _0361_
*439 _0362_
*440 _0363_
*441 _0364_
*442 _0365_
*443 _0366_
*444 _0367_
*445 _0368_
*446 _0369_
*447 _0370_
*448 _0371_
*449 _0372_
*450 _0373_
*451 _0374_
*452 _0375_
*453 _0376_
*454 _0377_
*455 _0378_
*456 _0379_
*457 _0380_
*458 _0381_
*459 _0382_
*460 _0383_
*461 _0384_
*462 _0385_
*463 _0386_
*464 _0387_
*465 _0388_
*466 _0389_
*467 _0390_
*468 _0391_
*469 _0392_
*470 _0393_
*471 _0394_
*472 _0395_
*473 _0396_
*474 _0397_
*475 _0398_
*476 _0399_
*477 _0400_
*478 _0401_
*479 _0402_
*480 _0403_
*481 _0404_
*482 _0405_
*483 _0406_
*484 _0407_
*485 _0408_
*486 _0409_
*487 _0410_
*488 _0411_
*489 _0412_
*490 _0413_
*491 _0414_
*492 _0415_
*493 _0416_
*494 _0417_
*495 _0418_
*496 _0419_
*497 _0420_
*498 _0421_
*499 _0422_
*500 _0423_
*501 _0424_
*502 _0425_
*503 _0426_
*504 _0427_
*505 _0428_
*506 _0429_
*507 _0430_
*508 _0431_
*509 _0432_
*510 _0433_
*511 _0434_
*512 _0435_
*513 _0436_
*514 _0437_
*515 _0438_
*516 _0439_
*517 _0440_
*518 _0441_
*519 _0442_
*520 _0443_
*521 _0444_
*522 _0445_
*523 _0446_
*524 _0447_
*525 _0448_
*526 _0449_
*527 _0450_
*528 _0451_
*529 _0452_
*530 _0453_
*531 _0454_
*532 _0455_
*533 _0456_
*534 _0457_
*535 _0458_
*536 _0459_
*537 _0460_
*538 _0461_
*539 _0462_
*540 _0463_
*541 _0464_
*542 _0465_
*543 _0466_
*544 _0467_
*545 _0468_
*546 _0469_
*547 _0470_
*548 _0471_
*549 _0472_
*550 _0473_
*551 _0474_
*552 _0475_
*553 _0476_
*554 _0477_
*555 _0478_
*556 _0479_
*557 _0480_
*558 _0481_
*559 _0482_
*560 _0483_
*561 _0484_
*562 _0485_
*563 _0486_
*564 _0487_
*565 _0488_
*566 _0489_
*567 _0490_
*568 _0491_
*569 _0492_
*570 _0493_
*571 _0494_
*572 _0495_
*573 _0496_
*574 _0497_
*575 _0498_
*576 _0499_
*577 _0500_
*578 _0501_
*579 _0502_
*580 _0503_
*581 _0504_
*582 _0505_
*583 _0506_
*584 _0507_
*585 _0508_
*586 _0509_
*587 _0510_
*588 _0511_
*589 _0512_
*590 _0513_
*591 _0514_
*592 _0515_
*593 _0516_
*594 _0517_
*595 _0518_
*596 _0519_
*597 _0520_
*598 _0521_
*599 _0522_
*600 _0523_
*601 _0524_
*602 _0525_
*603 _0526_
*604 _0527_
*605 _0528_
*606 _0529_
*607 _0530_
*608 _0531_
*609 _0532_
*610 _0533_
*611 _0534_
*612 _0535_
*613 _0536_
*614 _0537_
*615 _0538_
*616 _0539_
*617 _0540_
*618 _0541_
*619 _0542_
*620 _0543_
*621 _0544_
*622 _0545_
*623 _0546_
*624 _0547_
*625 _0548_
*626 _0549_
*627 _0550_
*628 _0551_
*629 _0552_
*630 _0553_
*631 _0554_
*632 _0555_
*633 _0556_
*634 _0557_
*635 _0558_
*636 _0559_
*637 _0560_
*638 _0561_
*639 _0562_
*640 _0563_
*641 _0564_
*642 _0565_
*643 _0566_
*644 _0567_
*645 _0568_
*646 _0569_
*647 _0570_
*648 _0571_
*649 _0572_
*650 _0573_
*651 _0574_
*652 _0575_
*653 _0576_
*654 _0577_
*655 _0578_
*656 _0579_
*657 _0580_
*658 _0581_
*659 _0582_
*660 _0583_
*661 _0584_
*662 _0585_
*663 _0586_
*664 _0587_
*665 _0588_
*666 _0589_
*667 _0590_
*668 _0591_
*669 _0592_
*670 _0593_
*671 _0594_
*672 clknet_0_clock
*673 clknet_2_0__leaf_clock
*674 clknet_2_1__leaf_clock
*675 clknet_2_2__leaf_clock
*676 clknet_2_3__leaf_clock
*677 manchester_baby_instance\.BASE_0\.s_countReg\[0\]
*678 manchester_baby_instance\.BASE_0\.s_countReg\[1\]
*679 manchester_baby_instance\.BASE_0\.s_countReg\[2\]
*680 manchester_baby_instance\.BASE_0\.s_tickNext
*681 manchester_baby_instance\.BASE_0\.s_tickReg
*682 manchester_baby_instance\.BASE_1\.s_bufferRegs\[0\]
*683 manchester_baby_instance\.BASE_1\.s_counterValue
*684 manchester_baby_instance\.BASE_1\.s_derivedClock
*685 manchester_baby_instance\.CIRCUIT_0\.ARITH_38\.dataB\[0\]
*686 manchester_baby_instance\.CIRCUIT_0\.ARITH_38\.dataB\[1\]
*687 manchester_baby_instance\.CIRCUIT_0\.ARITH_38\.dataB\[2\]
*688 manchester_baby_instance\.CIRCUIT_0\.ARITH_38\.dataB\[3\]
*689 manchester_baby_instance\.CIRCUIT_0\.ARITH_38\.dataB\[4\]
*690 manchester_baby_instance\.CIRCUIT_0\.Acc\.tick
*691 manchester_baby_instance\.CIRCUIT_0\.GATES_13\.result
*692 manchester_baby_instance\.CIRCUIT_0\.IR\.q\[0\]
*693 manchester_baby_instance\.CIRCUIT_0\.IR\.q\[13\]
*694 manchester_baby_instance\.CIRCUIT_0\.IR\.q\[14\]
*695 manchester_baby_instance\.CIRCUIT_0\.IR\.q\[15\]
*696 manchester_baby_instance\.CIRCUIT_0\.IR\.q\[1\]
*697 manchester_baby_instance\.CIRCUIT_0\.IR\.q\[2\]
*698 manchester_baby_instance\.CIRCUIT_0\.IR\.q\[3\]
*699 manchester_baby_instance\.CIRCUIT_0\.IR\.q\[4\]
*700 manchester_baby_instance\.CIRCUIT_0\.MEMORY_44\.countValue\[0\]
*701 manchester_baby_instance\.CIRCUIT_0\.MEMORY_44\.countValue\[1\]
*702 manchester_baby_instance\.CIRCUIT_0\.MEMORY_44\.countValue\[2\]
*703 manchester_baby_instance\.CIRCUIT_0\.MEMORY_44\.s_nextCounterValue\[0\]
*704 manchester_baby_instance\.CIRCUIT_0\.MEMORY_44\.s_nextCounterValue\[1\]
*705 manchester_baby_instance\.CIRCUIT_0\.MEMORY_44\.s_nextCounterValue\[2\]
*706 net1
*707 net10
*708 net11
*709 net12
*710 net13
*711 net14
*712 net15
*713 net16
*714 net17
*715 net18
*716 net19
*717 net2
*718 net20
*719 net21
*720 net22
*721 net23
*722 net24
*723 net25
*724 net26
*725 net27
*726 net28
*727 net29
*728 net3
*729 net30
*730 net31
*731 net32
*732 net33
*733 net34
*734 net35
*735 net36
*736 net37
*737 net38
*738 net39
*739 net4
*740 net40
*741 net41
*742 net42
*743 net43
*744 net44
*745 net45
*746 net46
*747 net47
*748 net48
*749 net49
*750 net5
*751 net50
*752 net51
*753 net52
*754 net53
*755 net54
*756 net55
*757 net56
*758 net57
*759 net58
*760 net59
*761 net6
*762 net60
*763 net61
*764 net62
*765 net63
*766 net64
*767 net65
*768 net66
*769 net67
*770 net68
*771 net69
*772 net7
*773 net70
*774 net71
*775 net72
*776 net73
*777 net74
*778 net8
*779 net9
*780 ANTENNA__0605__I
*781 ANTENNA__0606__A2
*782 ANTENNA__0607__A2
*783 ANTENNA__0609__A2
*784 ANTENNA__0610__A2
*785 ANTENNA__0612__A1
*786 ANTENNA__0612__A2
*787 ANTENNA__0613__A2
*788 ANTENNA__0614__I
*789 ANTENNA__0615__A2
*790 ANTENNA__0616__A2
*791 ANTENNA__0618__I0
*792 ANTENNA__0618__S
*793 ANTENNA__0621__I0
*794 ANTENNA__0621__S
*795 ANTENNA__0623__I
*796 ANTENNA__0624__A2
*797 ANTENNA__0625__A2
*798 ANTENNA__0627__A2
*799 ANTENNA__0628__A2
*800 ANTENNA__0670__A1
*801 ANTENNA__0677__I
*802 ANTENNA__0678__I
*803 ANTENNA__0680__A1
*804 ANTENNA__0680__B2
*805 ANTENNA__0687__I
*806 ANTENNA__0689__I
*807 ANTENNA__0694__A1
*808 ANTENNA__0696__A1
*809 ANTENNA__0696__C
*810 ANTENNA__0698__A1
*811 ANTENNA__0700__A1
*812 ANTENNA__0701__A1
*813 ANTENNA__0704__A1
*814 ANTENNA__0719__A1
*815 ANTENNA__0726__A1
*816 ANTENNA__0729__A1
*817 ANTENNA__0780__A1
*818 ANTENNA__0788__A1
*819 ANTENNA__0788__A3
*820 ANTENNA__0789__A1
*821 ANTENNA__0790__A1
*822 ANTENNA__0790__A2
*823 ANTENNA__0791__A1
*824 ANTENNA__0792__A1
*825 ANTENNA__0804__A1
*826 ANTENNA__0804__B1
*827 ANTENNA__0807__A1
*828 ANTENNA__0807__A2
*829 ANTENNA__0809__I1
*830 ANTENNA__0809__S
*831 ANTENNA__0813__A1
*832 ANTENNA__0815__A1
*833 ANTENNA__0816__S
*834 ANTENNA__0819__I
*835 ANTENNA__0820__I
*836 ANTENNA__0825__I
*837 ANTENNA__0826__A1
*838 ANTENNA__0826__B2
*839 ANTENNA__0827__I
*840 ANTENNA__0828__A2
*841 ANTENNA__0829__A1
*842 ANTENNA__0830__I
*843 ANTENNA__0833__A1
*844 ANTENNA__0833__B2
*845 ANTENNA__0834__A2
*846 ANTENNA__0835__A1
*847 ANTENNA__0841__A1
*848 ANTENNA__0841__B2
*849 ANTENNA__0842__S
*850 ANTENNA__0846__A1
*851 ANTENNA__0846__B2
*852 ANTENNA__0847__A2
*853 ANTENNA__0848__A1
*854 ANTENNA__0853__A1
*855 ANTENNA__0853__B2
*856 ANTENNA__0854__A2
*857 ANTENNA__0855__A1
*858 ANTENNA__0858__A1
*859 ANTENNA__0858__B2
*860 ANTENNA__0859__A2
*861 ANTENNA__0860__A1
*862 ANTENNA__0872__A1
*863 ANTENNA__0872__B2
*864 ANTENNA__0874__A2
*865 ANTENNA__0875__A1
*866 ANTENNA__0878__A1
*867 ANTENNA__0878__B2
*868 ANTENNA__0879__S
*869 ANTENNA__0886__A1
*870 ANTENNA__0887__A1
*871 ANTENNA__0888__S
*872 ANTENNA__0892__A1
*873 ANTENNA__0893__A1
*874 ANTENNA__0894__A2
*875 ANTENNA__0895__A1
*876 ANTENNA__0896__I
*877 ANTENNA__0902__A1
*878 ANTENNA__0902__B2
*879 ANTENNA__0903__A2
*880 ANTENNA__0904__A1
*881 ANTENNA__0905__I
*882 ANTENNA__0909__A1
*883 ANTENNA__0911__A1
*884 ANTENNA__0912__A2
*885 ANTENNA__0913__A1
*886 ANTENNA__0918__A1
*887 ANTENNA__0918__B2
*888 ANTENNA__0919__A2
*889 ANTENNA__0920__A1
*890 ANTENNA__0923__A1
*891 ANTENNA__0923__B2
*892 ANTENNA__0924__A2
*893 ANTENNA__0925__A1
*894 ANTENNA__0933__A1
*895 ANTENNA__0934__A1
*896 ANTENNA__0935__A2
*897 ANTENNA__0936__A1
*898 ANTENNA__0939__A1
*899 ANTENNA__0939__B2
*900 ANTENNA__0940__A2
*901 ANTENNA__0941__A1
*902 ANTENNA__0943__B
*903 ANTENNA__0948__A1
*904 ANTENNA__0948__B2
*905 ANTENNA__0949__A2
*906 ANTENNA__0950__A1
*907 ANTENNA__0953__A1
*908 ANTENNA__0954__A1
*909 ANTENNA__0955__A2
*910 ANTENNA__0956__A1
*911 ANTENNA__0963__A1
*912 ANTENNA__0963__B2
*913 ANTENNA__0964__A2
*914 ANTENNA__0965__A1
*915 ANTENNA__0966__A1
*916 ANTENNA__0967__A1
*917 ANTENNA__0969__A1
*918 ANTENNA__0971__A2
*919 ANTENNA__0972__A1
*920 ANTENNA__0973__A1
*921 ANTENNA__0975__A1
*922 ANTENNA__0979__A1
*923 ANTENNA__0979__B2
*924 ANTENNA__0980__A1
*925 ANTENNA__0980__A2
*926 ANTENNA__0981__A1
*927 ANTENNA__0982__A1
*928 ANTENNA__0983__A1
*929 ANTENNA__0985__B2
*930 ANTENNA__0986__A1
*931 ANTENNA__0986__A2
*932 ANTENNA__0987__A1
*933 ANTENNA__0989__A1
*934 ANTENNA__0995__A1
*935 ANTENNA__0995__B2
*936 ANTENNA__0996__A2
*937 ANTENNA__0997__A1
*938 ANTENNA__0998__A1
*939 ANTENNA__0999__A1
*940 ANTENNA__1001__A1
*941 ANTENNA__1003__A2
*942 ANTENNA__1004__A1
*943 ANTENNA__1007__A1
*944 ANTENNA__1008__A1
*945 ANTENNA__1009__A1
*946 ANTENNA__1010__S
*947 ANTENNA__1013__A1
*948 ANTENNA__1014__A1
*949 ANTENNA__1015__B2
*950 ANTENNA__1016__A2
*951 ANTENNA__1017__A1
*952 ANTENNA__1020__A1
*953 ANTENNA__1022__A1
*954 ANTENNA__1022__A2
*955 ANTENNA__1023__A1
*956 ANTENNA__1024__A1
*957 ANTENNA__1025__A1
*958 ANTENNA__1025__C
*959 ANTENNA__1026__A2
*960 ANTENNA__1028__A1
*961 ANTENNA__1028__B
*962 ANTENNA__1030__A1
*963 ANTENNA__1030__B2
*964 ANTENNA__1030__C
*965 ANTENNA__1031__A2
*966 ANTENNA__1034__A1
*967 ANTENNA__1035__A1
*968 ANTENNA__1036__S
*969 ANTENNA__1039__A2
*970 ANTENNA__1040__A2
*971 ANTENNA__1040__B
*972 ANTENNA__1041__A2
*973 ANTENNA__1048__A1
*974 ANTENNA__1049__A1
*975 ANTENNA__1051__A1
*976 ANTENNA__1052__A1
*977 ANTENNA__1055__A1
*978 ANTENNA__1057__A1
*979 ANTENNA__1059__A1
*980 ANTENNA__1063__A1
*981 ANTENNA__1073__A1
*982 ANTENNA__1077__A1
*983 ANTENNA__1083__A1
*984 ANTENNA__1085__A1
*985 ANTENNA__1088__A1
*986 ANTENNA__1090__A1
*987 ANTENNA__1097__A1
*988 ANTENNA__1101__A1
*989 ANTENNA__1104__A1
*990 ANTENNA__1137__I
*991 ANTENNA__1138__I
*992 ANTENNA__1139__I
*993 ANTENNA__1140__I
*994 ANTENNA__1141__I
*995 ANTENNA__1142__I
*996 ANTENNA__1143__I
*997 ANTENNA__1144__I
*998 ANTENNA__1145__I
*999 ANTENNA__1146__I
*1000 ANTENNA__1147__I
*1001 ANTENNA__1149__I
*1002 ANTENNA__1150__I
*1003 ANTENNA__1151__I
*1004 ANTENNA__1152__I
*1005 ANTENNA__1153__I
*1006 ANTENNA__1154__I
*1007 ANTENNA__1155__I
*1008 ANTENNA__1156__I
*1009 ANTENNA__1157__I
*1010 ANTENNA__1158__I
*1011 ANTENNA__1160__I
*1012 ANTENNA__1161__I
*1013 ANTENNA__1162__I
*1014 ANTENNA__1163__I
*1015 ANTENNA__1164__I
*1016 ANTENNA__1165__I
*1017 ANTENNA__1166__I
*1018 ANTENNA__1167__I
*1019 ANTENNA__1168__I
*1020 ANTENNA__1169__I
*1021 ANTENNA__1171__I
*1022 ANTENNA__1172__I
*1023 ANTENNA__1173__I
*1024 ANTENNA__1174__I
*1025 ANTENNA__1175__I
*1026 ANTENNA__1176__I
*1027 ANTENNA__1177__I
*1028 ANTENNA__1178__I
*1029 ANTENNA__1179__I
*1030 ANTENNA__1180__I
*1031 ANTENNA__1181__I
*1032 ANTENNA__1182__I
*1033 ANTENNA__1183__I
*1034 ANTENNA__1184__I
*1035 ANTENNA__1185__I
*1036 ANTENNA__1190__I
*1037 ANTENNA__1191__I
*1038 ANTENNA__1192__I
*1039 ANTENNA__1193__I
*1040 ANTENNA__1201__CLK
*1041 ANTENNA__1202__CLK
*1042 ANTENNA__1203__CLK
*1043 ANTENNA__1204__CLK
*1044 ANTENNA__1205__CLK
*1045 ANTENNA__1206__CLK
*1046 ANTENNA__1207__CLK
*1047 ANTENNA__1208__CLK
*1048 ANTENNA__1209__CLK
*1049 ANTENNA__1210__CLK
*1050 ANTENNA__1211__CLK
*1051 ANTENNA__1212__CLK
*1052 ANTENNA__1213__CLK
*1053 ANTENNA__1214__CLK
*1054 ANTENNA__1215__CLK
*1055 ANTENNA__1216__CLK
*1056 ANTENNA__1217__CLK
*1057 ANTENNA__1218__CLK
*1058 ANTENNA__1219__CLK
*1059 ANTENNA__1220__CLK
*1060 ANTENNA__1221__CLK
*1061 ANTENNA__1222__CLK
*1062 ANTENNA__1223__CLK
*1063 ANTENNA__1224__CLK
*1064 ANTENNA__1225__CLK
*1065 ANTENNA__1226__CLK
*1066 ANTENNA__1227__CLK
*1067 ANTENNA__1228__CLK
*1068 ANTENNA__1229__CLK
*1069 ANTENNA__1230__CLK
*1070 ANTENNA__1231__CLK
*1071 ANTENNA__1232__CLK
*1072 ANTENNA__1233__CLK
*1073 ANTENNA__1234__CLK
*1074 ANTENNA__1235__CLK
*1075 ANTENNA__1236__CLK
*1076 ANTENNA__1237__CLK
*1077 ANTENNA__1238__CLK
*1078 ANTENNA__1239__CLK
*1079 ANTENNA__1240__CLK
*1080 ANTENNA__1241__CLK
*1081 ANTENNA__1242__CLK
*1082 ANTENNA__1243__CLK
*1083 ANTENNA__1244__CLK
*1084 ANTENNA__1245__CLK
*1085 ANTENNA__1246__CLK
*1086 ANTENNA__1247__CLK
*1087 ANTENNA__1248__CLK
*1088 ANTENNA__1252__CLK
*1089 ANTENNA__1253__CLK
*1090 ANTENNA__1254__CLK
*1091 ANTENNA__1255__CLK
*1092 ANTENNA__1256__CLK
*1093 ANTENNA__1257__CLK
*1094 ANTENNA__1258__CLK
*1095 ANTENNA_clkbuf_0_clock_I
*1096 ANTENNA_clkbuf_2_0__f_clock_I
*1097 ANTENNA_clkbuf_2_1__f_clock_I
*1098 ANTENNA_clkbuf_2_2__f_clock_I
*1099 ANTENNA_clkbuf_2_3__f_clock_I
*1100 ANTENNA_input10_I
*1101 ANTENNA_input11_I
*1102 ANTENNA_input12_I
*1103 ANTENNA_input13_I
*1104 ANTENNA_input14_I
*1105 ANTENNA_input15_I
*1106 ANTENNA_input16_I
*1107 ANTENNA_input17_I
*1108 ANTENNA_input18_I
*1109 ANTENNA_input19_I
*1110 ANTENNA_input1_I
*1111 ANTENNA_input20_I
*1112 ANTENNA_input21_I
*1113 ANTENNA_input22_I
*1114 ANTENNA_input23_I
*1115 ANTENNA_input24_I
*1116 ANTENNA_input25_I
*1117 ANTENNA_input26_I
*1118 ANTENNA_input27_I
*1119 ANTENNA_input28_I
*1120 ANTENNA_input29_I
*1121 ANTENNA_input2_I
*1122 ANTENNA_input30_I
*1123 ANTENNA_input31_I
*1124 ANTENNA_input32_I
*1125 ANTENNA_input33_I
*1126 ANTENNA_input3_I
*1127 ANTENNA_input4_I
*1128 ANTENNA_input5_I
*1129 ANTENNA_input6_I
*1130 ANTENNA_input7_I
*1131 ANTENNA_input8_I
*1132 ANTENNA_input9_I
*1133 ANTENNA_output64_I
*1134 ANTENNA_output70_I
*1135 ANTENNA_output71_I
*1136 FILLER_0_0_104
*1137 FILLER_0_0_138
*1138 FILLER_0_0_146
*1139 FILLER_0_0_150
*1140 FILLER_0_0_161
*1141 FILLER_0_0_169
*1142 FILLER_0_0_172
*1143 FILLER_0_0_180
*1144 FILLER_0_0_191
*1145 FILLER_0_0_2
*1146 FILLER_0_0_201
*1147 FILLER_0_0_203
*1148 FILLER_0_0_206
*1149 FILLER_0_0_214
*1150 FILLER_0_0_233
*1151 FILLER_0_0_237
*1152 FILLER_0_0_240
*1153 FILLER_0_0_274
*1154 FILLER_0_0_308
*1155 FILLER_0_0_342
*1156 FILLER_0_0_346
*1157 FILLER_0_0_348
*1158 FILLER_0_0_36
*1159 FILLER_0_0_70
*1160 FILLER_0_10_119
*1161 FILLER_0_10_155
*1162 FILLER_0_10_177
*1163 FILLER_0_10_179
*1164 FILLER_0_10_196
*1165 FILLER_0_10_2
*1166 FILLER_0_10_247
*1167 FILLER_0_10_313
*1168 FILLER_0_10_317
*1169 FILLER_0_10_327
*1170 FILLER_0_10_34
*1171 FILLER_0_10_343
*1172 FILLER_0_10_347
*1173 FILLER_0_10_37
*1174 FILLER_0_10_45
*1175 FILLER_0_10_47
*1176 FILLER_0_10_52
*1177 FILLER_0_10_68
*1178 FILLER_0_11_158
*1179 FILLER_0_11_18
*1180 FILLER_0_11_2
*1181 FILLER_0_11_238
*1182 FILLER_0_11_240
*1183 FILLER_0_11_26
*1184 FILLER_0_11_271
*1185 FILLER_0_11_275
*1186 FILLER_0_11_278
*1187 FILLER_0_11_30
*1188 FILLER_0_11_303
*1189 FILLER_0_11_307
*1190 FILLER_0_11_311
*1191 FILLER_0_11_343
*1192 FILLER_0_11_347
*1193 FILLER_0_11_62
*1194 FILLER_0_11_66
*1195 FILLER_0_11_72
*1196 FILLER_0_11_80
*1197 FILLER_0_12_101
*1198 FILLER_0_12_107
*1199 FILLER_0_12_109
*1200 FILLER_0_12_128
*1201 FILLER_0_12_144
*1202 FILLER_0_12_148
*1203 FILLER_0_12_177
*1204 FILLER_0_12_179
*1205 FILLER_0_12_2
*1206 FILLER_0_12_244
*1207 FILLER_0_12_260
*1208 FILLER_0_12_267
*1209 FILLER_0_12_271
*1210 FILLER_0_12_275
*1211 FILLER_0_12_289
*1212 FILLER_0_12_314
*1213 FILLER_0_12_317
*1214 FILLER_0_12_327
*1215 FILLER_0_12_331
*1216 FILLER_0_12_335
*1217 FILLER_0_12_49
*1218 FILLER_0_12_97
*1219 FILLER_0_13_132
*1220 FILLER_0_13_136
*1221 FILLER_0_13_142
*1222 FILLER_0_13_146
*1223 FILLER_0_13_149
*1224 FILLER_0_13_153
*1225 FILLER_0_13_155
*1226 FILLER_0_13_165
*1227 FILLER_0_13_167
*1228 FILLER_0_13_18
*1229 FILLER_0_13_2
*1230 FILLER_0_13_243
*1231 FILLER_0_13_26
*1232 FILLER_0_13_268
*1233 FILLER_0_13_30
*1234 FILLER_0_13_333
*1235 FILLER_0_13_38
*1236 FILLER_0_13_40
*1237 FILLER_0_13_72
*1238 FILLER_0_13_76
*1239 FILLER_0_13_80
*1240 FILLER_0_14_107
*1241 FILLER_0_14_109
*1242 FILLER_0_14_112
*1243 FILLER_0_14_116
*1244 FILLER_0_14_156
*1245 FILLER_0_14_160
*1246 FILLER_0_14_172
*1247 FILLER_0_14_174
*1248 FILLER_0_14_2
*1249 FILLER_0_14_244
*1250 FILLER_0_14_271
*1251 FILLER_0_14_275
*1252 FILLER_0_14_277
*1253 FILLER_0_14_288
*1254 FILLER_0_14_304
*1255 FILLER_0_14_308
*1256 FILLER_0_14_312
*1257 FILLER_0_14_314
*1258 FILLER_0_14_317
*1259 FILLER_0_14_333
*1260 FILLER_0_14_34
*1261 FILLER_0_14_37
*1262 FILLER_0_14_65
*1263 FILLER_0_14_97
*1264 FILLER_0_15_119
*1265 FILLER_0_15_123
*1266 FILLER_0_15_134
*1267 FILLER_0_15_151
*1268 FILLER_0_15_198
*1269 FILLER_0_15_2
*1270 FILLER_0_15_208
*1271 FILLER_0_15_224
*1272 FILLER_0_15_276
*1273 FILLER_0_15_282
*1274 FILLER_0_15_299
*1275 FILLER_0_15_303
*1276 FILLER_0_15_307
*1277 FILLER_0_15_311
*1278 FILLER_0_15_327
*1279 FILLER_0_15_345
*1280 FILLER_0_15_66
*1281 FILLER_0_15_76
*1282 FILLER_0_15_80
*1283 FILLER_0_16_104
*1284 FILLER_0_16_111
*1285 FILLER_0_16_151
*1286 FILLER_0_16_16
*1287 FILLER_0_16_177
*1288 FILLER_0_16_233
*1289 FILLER_0_16_241
*1290 FILLER_0_16_262
*1291 FILLER_0_16_299
*1292 FILLER_0_16_303
*1293 FILLER_0_16_307
*1294 FILLER_0_16_313
*1295 FILLER_0_16_317
*1296 FILLER_0_16_32
*1297 FILLER_0_16_333
*1298 FILLER_0_16_34
*1299 FILLER_0_16_37
*1300 FILLER_0_16_45
*1301 FILLER_0_16_81
*1302 FILLER_0_16_85
*1303 FILLER_0_16_93
*1304 FILLER_0_16_95
*1305 FILLER_0_17_117
*1306 FILLER_0_17_121
*1307 FILLER_0_17_131
*1308 FILLER_0_17_135
*1309 FILLER_0_17_137
*1310 FILLER_0_17_147
*1311 FILLER_0_17_16
*1312 FILLER_0_17_197
*1313 FILLER_0_17_2
*1314 FILLER_0_17_201
*1315 FILLER_0_17_209
*1316 FILLER_0_17_321
*1317 FILLER_0_17_329
*1318 FILLER_0_17_333
*1319 FILLER_0_17_345
*1320 FILLER_0_17_48
*1321 FILLER_0_17_64
*1322 FILLER_0_17_68
*1323 FILLER_0_17_72
*1324 FILLER_0_17_76
*1325 FILLER_0_17_91
*1326 FILLER_0_18_102
*1327 FILLER_0_18_104
*1328 FILLER_0_18_119
*1329 FILLER_0_18_123
*1330 FILLER_0_18_127
*1331 FILLER_0_18_131
*1332 FILLER_0_18_134
*1333 FILLER_0_18_138
*1334 FILLER_0_18_142
*1335 FILLER_0_18_146
*1336 FILLER_0_18_150
*1337 FILLER_0_18_154
*1338 FILLER_0_18_173
*1339 FILLER_0_18_18
*1340 FILLER_0_18_187
*1341 FILLER_0_18_22
*1342 FILLER_0_18_236
*1343 FILLER_0_18_240
*1344 FILLER_0_18_244
*1345 FILLER_0_18_247
*1346 FILLER_0_18_26
*1347 FILLER_0_18_28
*1348 FILLER_0_18_299
*1349 FILLER_0_18_303
*1350 FILLER_0_18_307
*1351 FILLER_0_18_311
*1352 FILLER_0_18_317
*1353 FILLER_0_18_333
*1354 FILLER_0_18_37
*1355 FILLER_0_18_41
*1356 FILLER_0_18_44
*1357 FILLER_0_18_48
*1358 FILLER_0_18_74
*1359 FILLER_0_19_117
*1360 FILLER_0_19_119
*1361 FILLER_0_19_136
*1362 FILLER_0_19_142
*1363 FILLER_0_19_144
*1364 FILLER_0_19_152
*1365 FILLER_0_19_156
*1366 FILLER_0_19_158
*1367 FILLER_0_19_175
*1368 FILLER_0_19_177
*1369 FILLER_0_19_186
*1370 FILLER_0_19_190
*1371 FILLER_0_19_2
*1372 FILLER_0_19_201
*1373 FILLER_0_19_205
*1374 FILLER_0_19_209
*1375 FILLER_0_19_230
*1376 FILLER_0_19_234
*1377 FILLER_0_19_238
*1378 FILLER_0_19_242
*1379 FILLER_0_19_246
*1380 FILLER_0_19_250
*1381 FILLER_0_19_254
*1382 FILLER_0_19_258
*1383 FILLER_0_19_264
*1384 FILLER_0_19_268
*1385 FILLER_0_19_270
*1386 FILLER_0_19_273
*1387 FILLER_0_19_277
*1388 FILLER_0_19_279
*1389 FILLER_0_19_282
*1390 FILLER_0_19_299
*1391 FILLER_0_19_303
*1392 FILLER_0_19_307
*1393 FILLER_0_19_339
*1394 FILLER_0_19_347
*1395 FILLER_0_19_39
*1396 FILLER_0_19_4
*1397 FILLER_0_19_41
*1398 FILLER_0_19_46
*1399 FILLER_0_19_53
*1400 FILLER_0_19_57
*1401 FILLER_0_19_84
*1402 FILLER_0_1_136
*1403 FILLER_0_1_152
*1404 FILLER_0_1_184
*1405 FILLER_0_1_2
*1406 FILLER_0_1_200
*1407 FILLER_0_1_208
*1408 FILLER_0_1_212
*1409 FILLER_0_1_220
*1410 FILLER_0_1_222
*1411 FILLER_0_1_225
*1412 FILLER_0_1_257
*1413 FILLER_0_1_273
*1414 FILLER_0_1_277
*1415 FILLER_0_1_279
*1416 FILLER_0_1_282
*1417 FILLER_0_1_346
*1418 FILLER_0_1_348
*1419 FILLER_0_1_66
*1420 FILLER_0_1_72
*1421 FILLER_0_20_107
*1422 FILLER_0_20_132
*1423 FILLER_0_20_181
*1424 FILLER_0_20_183
*1425 FILLER_0_20_219
*1426 FILLER_0_20_22
*1427 FILLER_0_20_228
*1428 FILLER_0_20_230
*1429 FILLER_0_20_24
*1430 FILLER_0_20_247
*1431 FILLER_0_20_251
*1432 FILLER_0_20_253
*1433 FILLER_0_20_272
*1434 FILLER_0_20_276
*1435 FILLER_0_20_303
*1436 FILLER_0_20_307
*1437 FILLER_0_20_311
*1438 FILLER_0_20_317
*1439 FILLER_0_20_319
*1440 FILLER_0_20_326
*1441 FILLER_0_20_334
*1442 FILLER_0_20_338
*1443 FILLER_0_20_340
*1444 FILLER_0_20_60
*1445 FILLER_0_20_69
*1446 FILLER_0_20_73
*1447 FILLER_0_20_77
*1448 FILLER_0_20_81
*1449 FILLER_0_21_151
*1450 FILLER_0_21_16
*1451 FILLER_0_21_22
*1452 FILLER_0_21_232
*1453 FILLER_0_21_236
*1454 FILLER_0_21_240
*1455 FILLER_0_21_244
*1456 FILLER_0_21_246
*1457 FILLER_0_21_26
*1458 FILLER_0_21_271
*1459 FILLER_0_21_275
*1460 FILLER_0_21_279
*1461 FILLER_0_21_282
*1462 FILLER_0_21_32
*1463 FILLER_0_21_332
*1464 FILLER_0_21_334
*1465 FILLER_0_21_69
*1466 FILLER_0_21_83
*1467 FILLER_0_21_87
*1468 FILLER_0_21_95
*1469 FILLER_0_21_99
*1470 FILLER_0_22_103
*1471 FILLER_0_22_158
*1472 FILLER_0_22_162
*1473 FILLER_0_22_166
*1474 FILLER_0_22_177
*1475 FILLER_0_22_18
*1476 FILLER_0_22_20
*1477 FILLER_0_22_224
*1478 FILLER_0_22_23
*1479 FILLER_0_22_237
*1480 FILLER_0_22_241
*1481 FILLER_0_22_252
*1482 FILLER_0_22_256
*1483 FILLER_0_22_260
*1484 FILLER_0_22_262
*1485 FILLER_0_22_271
*1486 FILLER_0_22_308
*1487 FILLER_0_22_312
*1488 FILLER_0_22_314
*1489 FILLER_0_22_317
*1490 FILLER_0_22_325
*1491 FILLER_0_22_328
*1492 FILLER_0_22_336
*1493 FILLER_0_22_340
*1494 FILLER_0_22_37
*1495 FILLER_0_22_39
*1496 FILLER_0_22_70
*1497 FILLER_0_22_72
*1498 FILLER_0_22_86
*1499 FILLER_0_22_90
*1500 FILLER_0_23_113
*1501 FILLER_0_23_148
*1502 FILLER_0_23_207
*1503 FILLER_0_23_209
*1504 FILLER_0_23_268
*1505 FILLER_0_23_332
*1506 FILLER_0_23_334
*1507 FILLER_0_23_68
*1508 FILLER_0_23_72
*1509 FILLER_0_23_84
*1510 FILLER_0_23_88
*1511 FILLER_0_23_96
*1512 FILLER_0_24_107
*1513 FILLER_0_24_111
*1514 FILLER_0_24_115
*1515 FILLER_0_24_119
*1516 FILLER_0_24_123
*1517 FILLER_0_24_125
*1518 FILLER_0_24_147
*1519 FILLER_0_24_158
*1520 FILLER_0_24_162
*1521 FILLER_0_24_166
*1522 FILLER_0_24_168
*1523 FILLER_0_24_171
*1524 FILLER_0_24_177
*1525 FILLER_0_24_190
*1526 FILLER_0_24_2
*1527 FILLER_0_24_227
*1528 FILLER_0_24_231
*1529 FILLER_0_24_235
*1530 FILLER_0_24_239
*1531 FILLER_0_24_24
*1532 FILLER_0_24_259
*1533 FILLER_0_24_263
*1534 FILLER_0_24_267
*1535 FILLER_0_24_271
*1536 FILLER_0_24_275
*1537 FILLER_0_24_278
*1538 FILLER_0_24_28
*1539 FILLER_0_24_298
*1540 FILLER_0_24_302
*1541 FILLER_0_24_306
*1542 FILLER_0_24_310
*1543 FILLER_0_24_314
*1544 FILLER_0_24_317
*1545 FILLER_0_24_33
*1546 FILLER_0_24_333
*1547 FILLER_0_24_37
*1548 FILLER_0_24_41
*1549 FILLER_0_24_46
*1550 FILLER_0_24_50
*1551 FILLER_0_24_57
*1552 FILLER_0_24_79
*1553 FILLER_0_24_83
*1554 FILLER_0_25_109
*1555 FILLER_0_25_125
*1556 FILLER_0_25_129
*1557 FILLER_0_25_136
*1558 FILLER_0_25_150
*1559 FILLER_0_25_154
*1560 FILLER_0_25_158
*1561 FILLER_0_25_16
*1562 FILLER_0_25_161
*1563 FILLER_0_25_195
*1564 FILLER_0_25_197
*1565 FILLER_0_25_20
*1566 FILLER_0_25_229
*1567 FILLER_0_25_239
*1568 FILLER_0_25_241
*1569 FILLER_0_25_277
*1570 FILLER_0_25_279
*1571 FILLER_0_25_300
*1572 FILLER_0_25_316
*1573 FILLER_0_25_324
*1574 FILLER_0_25_328
*1575 FILLER_0_25_330
*1576 FILLER_0_25_333
*1577 FILLER_0_25_38
*1578 FILLER_0_25_46
*1579 FILLER_0_25_50
*1580 FILLER_0_26_10
*1581 FILLER_0_26_103
*1582 FILLER_0_26_113
*1583 FILLER_0_26_14
*1584 FILLER_0_26_153
*1585 FILLER_0_26_157
*1586 FILLER_0_26_247
*1587 FILLER_0_26_249
*1588 FILLER_0_26_30
*1589 FILLER_0_26_302
*1590 FILLER_0_26_306
*1591 FILLER_0_26_310
*1592 FILLER_0_26_314
*1593 FILLER_0_26_317
*1594 FILLER_0_26_333
*1595 FILLER_0_26_34
*1596 FILLER_0_26_37
*1597 FILLER_0_26_45
*1598 FILLER_0_26_49
*1599 FILLER_0_26_66
*1600 FILLER_0_26_68
*1601 FILLER_0_27_12
*1602 FILLER_0_27_127
*1603 FILLER_0_27_131
*1604 FILLER_0_27_133
*1605 FILLER_0_27_136
*1606 FILLER_0_27_151
*1607 FILLER_0_27_166