*SPEF "ieee 1481-1999"
*DESIGN "user_project_wrapper"
*DATE "11:11:11 Fri 11 11, 1111"
*VENDOR "OpenRCX"
*PROGRAM "Parallel Extraction"
*VERSION "1.0"
*DESIGN_FLOW "NAME_SCOPE LOCAL" "PIN_CAP NONE"
*DIVIDER /
*DELIMITER :
*BUS_DELIMITER []
*T_UNIT 1 NS
*C_UNIT 1 PF
*R_UNIT 1 OHM
*L_UNIT 1 HENRY

*NAME_MAP
*1 io_in[0]
*2 io_in[10]
*3 io_in[11]
*4 io_in[12]
*5 io_in[13]
*6 io_in[14]
*7 io_in[15]
*8 io_in[16]
*9 io_in[17]
*10 io_in[18]
*11 io_in[19]
*12 io_in[1]
*13 io_in[20]
*14 io_in[21]
*15 io_in[22]
*16 io_in[23]
*17 io_in[24]
*18 io_in[25]
*19 io_in[26]
*20 io_in[27]
*21 io_in[28]
*22 io_in[29]
*23 io_in[2]
*24 io_in[30]
*25 io_in[31]
*26 io_in[32]
*27 io_in[33]
*28 io_in[34]
*29 io_in[35]
*30 io_in[36]
*31 io_in[37]
*32 io_in[3]
*33 io_in[4]
*34 io_in[5]
*35 io_in[6]
*36 io_in[7]
*37 io_in[8]
*38 io_in[9]
*39 io_oeb[0]
*40 io_oeb[10]
*41 io_oeb[11]
*42 io_oeb[12]
*43 io_oeb[13]
*44 io_oeb[14]
*45 io_oeb[15]
*46 io_oeb[16]
*47 io_oeb[17]
*48 io_oeb[18]
*49 io_oeb[19]
*50 io_oeb[1]
*51 io_oeb[20]
*52 io_oeb[21]
*53 io_oeb[22]
*54 io_oeb[23]
*55 io_oeb[24]
*56 io_oeb[25]
*57 io_oeb[26]
*58 io_oeb[27]
*59 io_oeb[28]
*60 io_oeb[29]
*61 io_oeb[2]
*62 io_oeb[30]
*63 io_oeb[31]
*64 io_oeb[32]
*65 io_oeb[33]
*66 io_oeb[34]
*67 io_oeb[35]
*68 io_oeb[36]
*69 io_oeb[37]
*70 io_oeb[3]
*71 io_oeb[4]
*72 io_oeb[5]
*73 io_oeb[6]
*74 io_oeb[7]
*75 io_oeb[8]
*76 io_oeb[9]
*77 io_out[0]
*78 io_out[10]
*79 io_out[11]
*80 io_out[12]
*81 io_out[13]
*82 io_out[14]
*83 io_out[15]
*84 io_out[16]
*85 io_out[17]
*86 io_out[18]
*87 io_out[19]
*88 io_out[1]
*89 io_out[20]
*90 io_out[21]
*91 io_out[22]
*92 io_out[23]
*93 io_out[24]
*94 io_out[25]
*95 io_out[26]
*96 io_out[27]
*97 io_out[28]
*98 io_out[29]
*99 io_out[2]
*100 io_out[30]
*101 io_out[31]
*102 io_out[32]
*103 io_out[33]
*104 io_out[34]
*105 io_out[35]
*106 io_out[36]
*107 io_out[37]
*108 io_out[3]
*109 io_out[4]
*110 io_out[5]
*111 io_out[6]
*112 io_out[7]
*113 io_out[8]
*114 io_out[9]
*115 la_data_in[0]
*116 la_data_in[10]
*117 la_data_in[11]
*118 la_data_in[12]
*119 la_data_in[13]
*120 la_data_in[14]
*121 la_data_in[15]
*122 la_data_in[16]
*123 la_data_in[17]
*124 la_data_in[18]
*125 la_data_in[19]
*126 la_data_in[1]
*127 la_data_in[20]
*128 la_data_in[21]
*129 la_data_in[22]
*130 la_data_in[23]
*131 la_data_in[24]
*132 la_data_in[25]
*133 la_data_in[26]
*134 la_data_in[27]
*135 la_data_in[28]
*136 la_data_in[29]
*137 la_data_in[2]
*138 la_data_in[30]
*139 la_data_in[31]
*140 la_data_in[32]
*141 la_data_in[33]
*142 la_data_in[34]
*143 la_data_in[35]
*144 la_data_in[36]
*145 la_data_in[37]
*146 la_data_in[38]
*147 la_data_in[39]
*148 la_data_in[3]
*149 la_data_in[40]
*150 la_data_in[41]
*151 la_data_in[42]
*152 la_data_in[43]
*153 la_data_in[44]
*154 la_data_in[45]
*155 la_data_in[46]
*156 la_data_in[47]
*157 la_data_in[48]
*158 la_data_in[49]
*159 la_data_in[4]
*160 la_data_in[50]
*161 la_data_in[51]
*162 la_data_in[52]
*163 la_data_in[53]
*164 la_data_in[54]
*165 la_data_in[55]
*166 la_data_in[56]
*167 la_data_in[57]
*168 la_data_in[58]
*169 la_data_in[59]
*170 la_data_in[5]
*171 la_data_in[60]
*172 la_data_in[61]
*173 la_data_in[62]
*174 la_data_in[63]
*175 la_data_in[6]
*176 la_data_in[7]
*177 la_data_in[8]
*178 la_data_in[9]
*179 la_data_out[0]
*180 la_data_out[10]
*181 la_data_out[11]
*182 la_data_out[12]
*183 la_data_out[13]
*184 la_data_out[14]
*185 la_data_out[15]
*186 la_data_out[16]
*187 la_data_out[17]
*188 la_data_out[18]
*189 la_data_out[19]
*190 la_data_out[1]
*191 la_data_out[20]
*192 la_data_out[21]
*193 la_data_out[22]
*194 la_data_out[23]
*195 la_data_out[24]
*196 la_data_out[25]
*197 la_data_out[26]
*198 la_data_out[27]
*199 la_data_out[28]
*200 la_data_out[29]
*201 la_data_out[2]
*202 la_data_out[30]
*203 la_data_out[31]
*204 la_data_out[32]
*205 la_data_out[33]
*206 la_data_out[34]
*207 la_data_out[35]
*208 la_data_out[36]
*209 la_data_out[37]
*210 la_data_out[38]
*211 la_data_out[39]
*212 la_data_out[3]
*213 la_data_out[40]
*214 la_data_out[41]
*215 la_data_out[42]
*216 la_data_out[43]
*217 la_data_out[44]
*218 la_data_out[45]
*219 la_data_out[46]
*220 la_data_out[47]
*221 la_data_out[48]
*222 la_data_out[49]
*223 la_data_out[4]
*224 la_data_out[50]
*225 la_data_out[51]
*226 la_data_out[52]
*227 la_data_out[53]
*228 la_data_out[54]
*229 la_data_out[55]
*230 la_data_out[56]
*231 la_data_out[57]
*232 la_data_out[58]
*233 la_data_out[59]
*234 la_data_out[5]
*235 la_data_out[60]
*236 la_data_out[61]
*237 la_data_out[62]
*238 la_data_out[63]
*239 la_data_out[6]
*240 la_data_out[7]
*241 la_data_out[8]
*242 la_data_out[9]
*243 la_oenb[0]
*244 la_oenb[10]
*245 la_oenb[11]
*246 la_oenb[12]
*247 la_oenb[13]
*248 la_oenb[14]
*249 la_oenb[15]
*250 la_oenb[16]
*251 la_oenb[17]
*252 la_oenb[18]
*253 la_oenb[19]
*254 la_oenb[1]
*255 la_oenb[20]
*256 la_oenb[21]
*257 la_oenb[22]
*258 la_oenb[23]
*259 la_oenb[24]
*260 la_oenb[25]
*261 la_oenb[26]
*262 la_oenb[27]
*263 la_oenb[28]
*264 la_oenb[29]
*265 la_oenb[2]
*266 la_oenb[30]
*267 la_oenb[31]
*268 la_oenb[32]
*269 la_oenb[33]
*270 la_oenb[34]
*271 la_oenb[35]
*272 la_oenb[36]
*273 la_oenb[37]
*274 la_oenb[38]
*275 la_oenb[39]
*276 la_oenb[3]
*277 la_oenb[40]
*278 la_oenb[41]
*279 la_oenb[42]
*280 la_oenb[43]
*281 la_oenb[44]
*282 la_oenb[45]
*283 la_oenb[46]
*284 la_oenb[47]
*285 la_oenb[48]
*286 la_oenb[49]
*287 la_oenb[4]
*288 la_oenb[50]
*289 la_oenb[51]
*290 la_oenb[52]
*291 la_oenb[53]
*292 la_oenb[54]
*293 la_oenb[55]
*294 la_oenb[56]
*295 la_oenb[57]
*296 la_oenb[58]
*297 la_oenb[59]
*298 la_oenb[5]
*299 la_oenb[60]
*300 la_oenb[61]
*301 la_oenb[62]
*302 la_oenb[63]
*303 la_oenb[6]
*304 la_oenb[7]
*305 la_oenb[8]
*306 la_oenb[9]
*307 user_clock2
*308 user_irq[0]
*309 user_irq[1]
*310 user_irq[2]
*313 wb_clk_i
*314 wb_rst_i
*315 wbs_ack_o
*316 wbs_adr_i[0]
*317 wbs_adr_i[10]
*318 wbs_adr_i[11]
*319 wbs_adr_i[12]
*320 wbs_adr_i[13]
*321 wbs_adr_i[14]
*322 wbs_adr_i[15]
*323 wbs_adr_i[16]
*324 wbs_adr_i[17]
*325 wbs_adr_i[18]
*326 wbs_adr_i[19]
*327 wbs_adr_i[1]
*328 wbs_adr_i[20]
*329 wbs_adr_i[21]
*330 wbs_adr_i[22]
*331 wbs_adr_i[23]
*332 wbs_adr_i[24]
*333 wbs_adr_i[25]
*334 wbs_adr_i[26]
*335 wbs_adr_i[27]
*336 wbs_adr_i[28]
*337 wbs_adr_i[29]
*338 wbs_adr_i[2]
*339 wbs_adr_i[30]
*340 wbs_adr_i[31]
*341 wbs_adr_i[3]
*342 wbs_adr_i[4]
*343 wbs_adr_i[5]
*344 wbs_adr_i[6]
*345 wbs_adr_i[7]
*346 wbs_adr_i[8]
*347 wbs_adr_i[9]
*348 wbs_cyc_i
*349 wbs_dat_i[0]
*350 wbs_dat_i[10]
*351 wbs_dat_i[11]
*352 wbs_dat_i[12]
*353 wbs_dat_i[13]
*354 wbs_dat_i[14]
*355 wbs_dat_i[15]
*356 wbs_dat_i[16]
*357 wbs_dat_i[17]
*358 wbs_dat_i[18]
*359 wbs_dat_i[19]
*360 wbs_dat_i[1]
*361 wbs_dat_i[20]
*362 wbs_dat_i[21]
*363 wbs_dat_i[22]
*364 wbs_dat_i[23]
*365 wbs_dat_i[24]
*366 wbs_dat_i[25]
*367 wbs_dat_i[26]
*368 wbs_dat_i[27]
*369 wbs_dat_i[28]
*370 wbs_dat_i[29]
*371 wbs_dat_i[2]
*372 wbs_dat_i[30]
*373 wbs_dat_i[31]
*374 wbs_dat_i[3]
*375 wbs_dat_i[4]
*376 wbs_dat_i[5]
*377 wbs_dat_i[6]
*378 wbs_dat_i[7]
*379 wbs_dat_i[8]
*380 wbs_dat_i[9]
*381 wbs_dat_o[0]
*382 wbs_dat_o[10]
*383 wbs_dat_o[11]
*384 wbs_dat_o[12]
*385 wbs_dat_o[13]
*386 wbs_dat_o[14]
*387 wbs_dat_o[15]
*388 wbs_dat_o[16]
*389 wbs_dat_o[17]
*390 wbs_dat_o[18]
*391 wbs_dat_o[19]
*392 wbs_dat_o[1]
*393 wbs_dat_o[20]
*394 wbs_dat_o[21]
*395 wbs_dat_o[22]
*396 wbs_dat_o[23]
*397 wbs_dat_o[24]
*398 wbs_dat_o[25]
*399 wbs_dat_o[26]
*400 wbs_dat_o[27]
*401 wbs_dat_o[28]
*402 wbs_dat_o[29]
*403 wbs_dat_o[2]
*404 wbs_dat_o[30]
*405 wbs_dat_o[31]
*406 wbs_dat_o[3]
*407 wbs_dat_o[4]
*408 wbs_dat_o[5]
*409 wbs_dat_o[6]
*410 wbs_dat_o[7]
*411 wbs_dat_o[8]
*412 wbs_dat_o[9]
*413 wbs_sel_i[0]
*414 wbs_sel_i[1]
*415 wbs_sel_i[2]
*416 wbs_sel_i[3]
*417 wbs_stb_i
*418 wbs_we_i
*419 mprj
*420 titan_instance

*PORTS
io_in[0] I
io_in[10] I
io_in[11] I
io_in[12] I
io_in[13] I
io_in[14] I
io_in[15] I
io_in[16] I
io_in[17] I
io_in[18] I
io_in[19] I
io_in[1] I
io_in[20] I
io_in[21] I
io_in[22] I
io_in[23] I
io_in[24] I
io_in[25] I
io_in[26] I
io_in[27] I
io_in[28] I
io_in[29] I
io_in[2] I
io_in[30] I
io_in[31] I
io_in[32] I
io_in[33] I
io_in[34] I
io_in[35] I
io_in[36] I
io_in[37] I
io_in[3] I
io_in[4] I
io_in[5] I
io_in[6] I
io_in[7] I
io_in[8] I
io_in[9] I
io_oeb[0] O
io_oeb[10] O
io_oeb[11] O
io_oeb[12] O
io_oeb[13] O
io_oeb[14] O
io_oeb[15] O
io_oeb[16] O
io_oeb[17] O
io_oeb[18] O
io_oeb[19] O
io_oeb[1] O
io_oeb[20] O
io_oeb[21] O
io_oeb[22] O
io_oeb[23] O
io_oeb[24] O
io_oeb[25] O
io_oeb[26] O
io_oeb[27] O
io_oeb[28] O
io_oeb[29] O
io_oeb[2] O
io_oeb[30] O
io_oeb[31] O
io_oeb[32] O
io_oeb[33] O
io_oeb[34] O
io_oeb[35] O
io_oeb[36] O
io_oeb[37] O
io_oeb[3] O
io_oeb[4] O
io_oeb[5] O
io_oeb[6] O
io_oeb[7] O
io_oeb[8] O
io_oeb[9] O
io_out[0] O
io_out[10] O
io_out[11] O
io_out[12] O
io_out[13] O
io_out[14] O
io_out[15] O
io_out[16] O
io_out[17] O
io_out[18] O
io_out[19] O
io_out[1] O
io_out[20] O
io_out[21] O
io_out[22] O
io_out[23] O
io_out[24] O
io_out[25] O
io_out[26] O
io_out[27] O
io_out[28] O
io_out[29] O
io_out[2] O
io_out[30] O
io_out[31] O
io_out[32] O
io_out[33] O
io_out[34] O
io_out[35] O
io_out[36] O
io_out[37] O
io_out[3] O
io_out[4] O
io_out[5] O
io_out[6] O
io_out[7] O
io_out[8] O
io_out[9] O
la_data_in[0] I
la_data_in[10] I
la_data_in[11] I
la_data_in[12] I
la_data_in[13] I
la_data_in[14] I
la_data_in[15] I
la_data_in[16] I
la_data_in[17] I
la_data_in[18] I
la_data_in[19] I
la_data_in[1] I
la_data_in[20] I
la_data_in[21] I
la_data_in[22] I
la_data_in[23] I
la_data_in[24] I
la_data_in[25] I
la_data_in[26] I
la_data_in[27] I
la_data_in[28] I
la_data_in[29] I
la_data_in[2] I
la_data_in[30] I
la_data_in[31] I
la_data_in[32] I
la_data_in[33] I
la_data_in[34] I
la_data_in[35] I
la_data_in[36] I
la_data_in[37] I
la_data_in[38] I
la_data_in[39] I
la_data_in[3] I
la_data_in[40] I
la_data_in[41] I
la_data_in[42] I
la_data_in[43] I
la_data_in[44] I
la_data_in[45] I
la_data_in[46] I
la_data_in[47] I
la_data_in[48] I
la_data_in[49] I
la_data_in[4] I
la_data_in[50] I
la_data_in[51] I
la_data_in[52] I
la_data_in[53] I
la_data_in[54] I
la_data_in[55] I
la_data_in[56] I
la_data_in[57] I
la_data_in[58] I
la_data_in[59] I
la_data_in[5] I
la_data_in[60] I
la_data_in[61] I
la_data_in[62] I
la_data_in[63] I
la_data_in[6] I
la_data_in[7] I
la_data_in[8] I
la_data_in[9] I
la_data_out[0] O
la_data_out[10] O
la_data_out[11] O
la_data_out[12] O
la_data_out[13] O
la_data_out[14] O
la_data_out[15] O
la_data_out[16] O
la_data_out[17] O
la_data_out[18] O
la_data_out[19] O
la_data_out[1] O
la_data_out[20] O
la_data_out[21] O
la_data_out[22] O
la_data_out[23] O
la_data_out[24] O
la_data_out[25] O
la_data_out[26] O
la_data_out[27] O
la_data_out[28] O
la_data_out[29] O
la_data_out[2] O
la_data_out[30] O
la_data_out[31] O
la_data_out[32] O
la_data_out[33] O
la_data_out[34] O
la_data_out[35] O
la_data_out[36] O
la_data_out[37] O
la_data_out[38] O
la_data_out[39] O
la_data_out[3] O
la_data_out[40] O
la_data_out[41] O
la_data_out[42] O
la_data_out[43] O
la_data_out[44] O
la_data_out[45] O
la_data_out[46] O
la_data_out[47] O
la_data_out[48] O
la_data_out[49] O
la_data_out[4] O
la_data_out[50] O
la_data_out[51] O
la_data_out[52] O
la_data_out[53] O
la_data_out[54] O
la_data_out[55] O
la_data_out[56] O
la_data_out[57] O
la_data_out[58] O
la_data_out[59] O
la_data_out[5] O
la_data_out[60] O
la_data_out[61] O
la_data_out[62] O
la_data_out[63] O
la_data_out[6] O
la_data_out[7] O
la_data_out[8] O
la_data_out[9] O
la_oenb[0] I
la_oenb[10] I
la_oenb[11] I
la_oenb[12] I
la_oenb[13] I
la_oenb[14] I
la_oenb[15] I
la_oenb[16] I
la_oenb[17] I
la_oenb[18] I
la_oenb[19] I
la_oenb[1] I
la_oenb[20] I
la_oenb[21] I
la_oenb[22] I
la_oenb[23] I
la_oenb[24] I
la_oenb[25] I
la_oenb[26] I
la_oenb[27] I
la_oenb[28] I
la_oenb[29] I
la_oenb[2] I
la_oenb[30] I
la_oenb[31] I
la_oenb[32] I
la_oenb[33] I
la_oenb[34] I
la_oenb[35] I
la_oenb[36] I
la_oenb[37] I
la_oenb[38] I
la_oenb[39] I
la_oenb[3] I
la_oenb[40] I
la_oenb[41] I
la_oenb[42] I
la_oenb[43] I
la_oenb[44] I
la_oenb[45] I
la_oenb[46] I
la_oenb[47] I
la_oenb[48] I
la_oenb[49] I
la_oenb[4] I
la_oenb[50] I
la_oenb[51] I
la_oenb[52] I
la_oenb[53] I
la_oenb[54] I
la_oenb[55] I
la_oenb[56] I
la_oenb[57] I
la_oenb[58] I
la_oenb[59] I
la_oenb[5] I
la_oenb[60] I
la_oenb[61] I
la_oenb[62] I
la_oenb[63] I
la_oenb[6] I
la_oenb[7] I
la_oenb[8] I
la_oenb[9] I
user_clock2 I
user_irq[0] O
user_irq[1] O
user_irq[2] O
wb_clk_i I
wb_rst_i I
wbs_ack_o O
wbs_adr_i[0] I
wbs_adr_i[10] I
wbs_adr_i[11] I
wbs_adr_i[12] I
wbs_adr_i[13] I
wbs_adr_i[14] I
wbs_adr_i[15] I
wbs_adr_i[16] I
wbs_adr_i[17] I
wbs_adr_i[18] I
wbs_adr_i[19] I
wbs_adr_i[1] I
wbs_adr_i[20] I
wbs_adr_i[21] I
wbs_adr_i[22] I
wbs_adr_i[23] I
wbs_adr_i[24] I
wbs_adr_i[25] I
wbs_adr_i[26] I
wbs_adr_i[27] I
wbs_adr_i[28] I
wbs_adr_i[29] I
wbs_adr_i[2] I
wbs_adr_i[30] I
wbs_adr_i[31] I
wbs_adr_i[3] I
wbs_adr_i[4] I
wbs_adr_i[5] I
wbs_adr_i[6] I
wbs_adr_i[7] I
wbs_adr_i[8] I
wbs_adr_i[9] I
wbs_cyc_i I
wbs_dat_i[0] I
wbs_dat_i[10] I
wbs_dat_i[11] I
wbs_dat_i[12] I
wbs_dat_i[13] I
wbs_dat_i[14] I
wbs_dat_i[15] I
wbs_dat_i[16] I
wbs_dat_i[17] I
wbs_dat_i[18] I
wbs_dat_i[19] I
wbs_dat_i[1] I
wbs_dat_i[20] I
wbs_dat_i[21] I
wbs_dat_i[22] I
wbs_dat_i[23] I
wbs_dat_i[24] I
wbs_dat_i[25] I
wbs_dat_i[26] I
wbs_dat_i[27] I
wbs_dat_i[28] I
wbs_dat_i[29] I
wbs_dat_i[2] I
wbs_dat_i[30] I
wbs_dat_i[31] I
wbs_dat_i[3] I
wbs_dat_i[4] I
wbs_dat_i[5] I
wbs_dat_i[6] I
wbs_dat_i[7] I
wbs_dat_i[8] I
wbs_dat_i[9] I
wbs_dat_o[0] O
wbs_dat_o[10] O
wbs_dat_o[11] O
wbs_dat_o[12] O
wbs_dat_o[13] O
wbs_dat_o[14] O
wbs_dat_o[15] O
wbs_dat_o[16] O
wbs_dat_o[17] O
wbs_dat_o[18] O
wbs_dat_o[19] O
wbs_dat_o[1] O
wbs_dat_o[20] O
wbs_dat_o[21] O
wbs_dat_o[22] O
wbs_dat_o[23] O
wbs_dat_o[24] O
wbs_dat_o[25] O
wbs_dat_o[26] O
wbs_dat_o[27] O
wbs_dat_o[28] O
wbs_dat_o[29] O
wbs_dat_o[2] O
wbs_dat_o[30] O
wbs_dat_o[31] O
wbs_dat_o[3] O
wbs_dat_o[4] O
wbs_dat_o[5] O
wbs_dat_o[6] O
wbs_dat_o[7] O
wbs_dat_o[8] O
wbs_dat_o[9] O
wbs_sel_i[0] I
wbs_sel_i[1] I
wbs_sel_i[2] I
wbs_sel_i[3] I
wbs_stb_i I
wbs_we_i I

*D_NET *1 0.160505
*CONN
*P io_in[0] I
*I *419:io_in[0] I *D user_proj_example
*CAP
1 io_in[0] 0.0294755
2 *419:io_in[0] 0.00671184
3 *1:11 0.00671184
4 *1:9 0.0305071
5 *1:7 0.0305071
6 *1:5 0.0294755
7 *1:5 *152:9 0.00576546
8 *1:5 *154:9 0.000582116
9 *1:5 *157:9 0
10 *1:5 *161:9 0
11 *1:5 *164:9 0
12 *1:5 *167:9 0
13 *1:5 *169:9 0.0207682
*RES
1 io_in[0] *1:5 343.46 
2 *1:5 *1:7 4.5 
3 *1:7 *1:9 256.568 
4 *1:9 *1:11 4.5 
5 *1:11 *419:io_in[0] 57.252 
*END

*D_NET *12 0.183159
*CONN
*P io_in[1] I
*I *419:io_in[1] I *D user_proj_example
*CAP
1 io_in[1] 0.0449015
2 *419:io_in[1] 0.000920575
3 *12:9 0.0175784
4 *12:7 0.0166578
5 *12:5 0.0449015
6 *12:9 *23:9 0.0581987
7 *12:9 *70:9 0
8 *12:9 *108:9 0
*RES
1 io_in[1] *12:5 393.38 
2 *12:5 *12:7 4.5 
3 *12:7 *12:9 219.128 
4 *12:9 *419:io_in[1] 11.832 
*END

*D_NET *23 0.220881
*CONN
*P io_in[2] I
*I *419:io_in[2] I *D user_proj_example
*CAP
1 io_in[2] 0.0448789
2 *419:io_in[2] 0.00113593
3 *23:9 0.00507105
4 *23:7 0.00393513
5 *23:5 0.0448789
6 *23:9 *70:9 0
7 *23:9 *99:9 0.0627828
8 *12:9 *23:9 0.0581987
*RES
1 io_in[2] *23:5 393.172 
2 *23:5 *23:7 4.5 
3 *23:7 *23:9 181.688 
4 *23:9 *419:io_in[2] 12.04 
*END

*D_NET *24 0.122032
*CONN
*P io_in[30] I
*I *419:io_in[8] I *D user_proj_example
*CAP
1 io_in[30] 0.000790409
2 *419:io_in[8] 0.0456191
3 *24:16 1.69549e-05
4 *24:11 0.0456021
5 *24:9 0.00553298
6 *24:7 0.00632339
7 *24:9 *100:8 0.0181472
*RES
1 io_in[30] *24:7 11.624 
2 *24:7 *24:9 71.656 
3 *24:9 *24:11 4.5 
4 *24:11 *419:io_in[8] 401.024 
5 *419:io_in[8] *24:16 0.156 
*END

*D_NET *25 0.102547
*CONN
*P io_in[31] I
*I *419:io_in[9] I *D user_proj_example
*CAP
1 io_in[31] 0.00296182
2 *419:io_in[9] 0.0455975
3 *25:16 1.69549e-05
4 *25:11 0.0485424
5 *25:11 io_out[31] 0.00120307
6 *25:11 *62:8 0.00217008
7 *25:11 *100:8 0.00205522
*RES
1 io_in[31] *25:11 45.348 
2 *25:11 *419:io_in[9] 401.024 
3 *419:io_in[9] *25:16 0.156 
*END

*D_NET *26 0.0966634
*CONN
*P io_in[32] I
*I *419:io_in[10] I *D user_proj_example
*CAP
1 io_in[32] 0.0403056
2 *419:io_in[10] 0.00217138
3 *26:16 1.69549e-05
4 *26:5 0.04246
5 *26:5 *102:4 0.0117095
*RES
1 io_in[32] *26:5 401.908 
2 *26:5 *419:io_in[10] 28.656 
3 *419:io_in[10] *26:16 0.156 
*END

*D_NET *27 0.120365
*CONN
*P io_in[33] I
*I *419:io_in[11] I *D user_proj_example
*CAP
1 io_in[33] 0.000922776
2 *419:io_in[11] 0.0455082
3 *27:16 1.69549e-05
4 *27:11 0.0454913
5 *27:9 0.00287145
6 *27:7 0.00379422
7 *27:9 io_out[32] 0.000532961
8 *27:9 *64:8 0.00112146
9 *27:9 *103:8 0.0172919
10 *27:9 *104:8 0.00281409
*RES
1 io_in[33] *27:7 12.248 
2 *27:7 *27:9 55.432 
3 *27:9 *27:11 4.5 
4 *27:11 *419:io_in[11] 400.4 
5 *419:io_in[11] *27:16 0.156 
*END

*D_NET *28 0.137941
*CONN
*P io_in[34] I
*I *419:io_in[12] I *D user_proj_example
*CAP
1 io_in[34] 0.000790409
2 *419:io_in[12] 0.0456406
3 *28:16 1.69549e-05
4 *28:11 0.0456236
5 *28:9 0.00575182
6 *28:7 0.00654223
7 *28:9 *65:8 0.0287701
8 *28:9 *68:8 0.000538336
9 *28:9 *105:8 0.00426679
*RES
1 io_in[34] *28:7 11.624 
2 *28:7 *28:9 97.864 
3 *28:9 *28:11 4.5 
4 *28:11 *419:io_in[12] 401.024 
5 *419:io_in[12] *28:16 0.156 
*END

*D_NET *29 0.241616
*CONN
*P io_in[35] I
*I *419:io_in[13] I *D user_proj_example
*I *420:spi_pico_i I *D titan
*CAP
1 io_in[35] 0.000945363
2 *419:io_in[13] 0.0289588
3 *420:spi_pico_i 0.000362813
4 *29:46 1.69549e-05
5 *29:41 0.0289418
6 *29:39 0.010668
7 *29:29 0.0106949
8 *29:27 0.0103321
9 *29:25 0.0244376
10 *29:23 0.0278849
11 *29:17 0.0143942
12 *29:13 0.0125193
13 *29:11 0.0147747
14 *29:7 0.0034797
15 *29:11 *66:8 0.00714095
16 *29:11 *105:8 0.00462418
17 *29:13 *313:21 0.00597949
18 *29:23 *313:21 0.0354606
*RES
1 io_in[35] *29:7 12.456 
2 *29:7 *29:11 48.5477 
3 *29:11 *29:13 61.81 
4 *29:13 *29:17 6.60971 
5 *29:17 *29:23 39.9845 
6 *29:23 *29:25 219.109 
7 *29:25 *29:27 4.5 
8 *29:27 *29:29 71.656 
9 *29:29 *420:spi_pico_i 7.464 
10 *29:17 *29:39 94.3466 
11 *29:39 *29:41 4.5 
12 *29:41 *419:io_in[13] 256.048 
13 *419:io_in[13] *29:46 0.156 
*END

*D_NET *30 0.369503
*CONN
*P io_in[36] I
*I *419:io_in[14] I *D user_proj_example
*I *420:spi_clock_i I *D titan
*CAP
1 io_in[36] 0.000878653
2 *419:io_in[14] 0.000553021
3 *420:spi_clock_i 0.00143902
4 *30:39 1.69549e-05
5 *30:32 0.0165129
6 *30:30 0.0159769
7 *30:28 0.0143985
8 *30:13 0.0238332
9 *30:11 0.0079957
10 *30:9 0.00174599
11 *30:7 0.00262464
12 *30:9 *31:11 0.000560897
13 *30:9 *68:8 0.0208607
14 *30:9 *106:16 0.0214846
15 *30:9 *107:8 0.00460034
16 *30:13 *31:13 0.0109311
17 *30:28 *31:13 0.000290902
18 *30:28 *31:35 0.000147698
19 *30:28 *31:37 0.135064
20 *30:28 *106:12 0
21 *30:28 *106:26 0
22 *30:32 *69:8 0.0811872
23 *30:32 *106:30 0.00840015
*RES
1 io_in[36] *30:7 12.04 
2 *30:7 *30:9 80.0317 
3 *30:9 *30:11 4.5 
4 *30:11 *30:13 49.3373 
5 *30:13 *420:spi_clock_i 25.0923 
6 *30:13 *30:28 120.343 
7 *30:28 *30:30 4.5 
8 *30:30 *30:32 263.072 
9 *30:32 *419:io_in[14] 9.284 
10 *419:io_in[14] *30:39 0.156 
*END

*D_NET *31 0.317516
*CONN
*P io_in[37] I
*I *419:io_in[15] I *D user_proj_example
*I *420:spi_cs_i I *D titan
*CAP
1 io_in[37] 0.000850862
2 *419:io_in[15] 0.000485202
3 *420:spi_cs_i 0.00106854
4 *31:48 1.69549e-05
5 *31:41 0.0135464
6 *31:39 0.0130782
7 *31:37 0.0139129
8 *31:35 0.0142442
9 *31:13 0.00827213
10 *31:11 0.00772314
11 *31:11 *106:16 0.000228609
12 *31:11 *107:8 0.00110265
13 *31:13 *106:12 0.00527346
14 *31:35 *106:12 6.65568e-05
15 *31:37 *106:26 0
16 *31:41 *106:30 0.0906512
17 *30:9 *31:11 0.000560897
18 *30:13 *31:13 0.0109311
19 *30:28 *31:13 0.000290902
20 *30:28 *31:35 0.000147698
21 *30:28 *31:37 0.135064
*RES
1 io_in[37] *31:11 19.0769 
2 *31:11 *31:13 50.7627 
3 *31:13 *420:spi_cs_i 22.8711 
4 *31:13 *31:35 11.4691 
5 *31:35 *31:37 118.65 
6 *31:37 *31:39 4.5 
7 *31:39 *31:41 226.545 
8 *31:41 *419:io_in[15] 8.66 
9 *419:io_in[15] *31:48 0.156 
*END

*D_NET *32 0.179405
*CONN
*P io_in[3] I
*I *419:io_in[3] I *D user_proj_example
*CAP
1 io_in[3] 0.0447903
2 *419:io_in[3] 0.00096686
3 *32:9 0.00683849
4 *32:7 0.00587163
5 *32:5 0.0447903
6 *32:9 *33:9 0.0282068
7 *32:9 *99:9 0.0479407
*RES
1 io_in[3] *32:5 392.756 
2 *32:5 *32:7 4.5 
3 *32:7 *32:9 144.248 
4 *32:9 *419:io_in[3] 12.456 
*END

*D_NET *33 0.135874
*CONN
*P io_in[4] I
*I *419:io_in[4] I *D user_proj_example
*CAP
1 io_in[4] 0.0446379
2 *419:io_in[4] 0.000989485
3 *33:9 0.00919552
4 *33:7 0.00820603
5 *33:5 0.0446379
6 *32:9 *33:9 0.0282068
*RES
1 io_in[4] *33:5 392.548 
2 *33:5 *33:7 4.5 
3 *33:7 *33:9 106.808 
4 *33:9 *419:io_in[4] 12.664 
*END

*D_NET *34 0.137869
*CONN
*P io_in[5] I
*I *419:io_in[5] I *D user_proj_example
*CAP
1 io_in[5] 0.0450867
2 *419:io_in[5] 0.000540628
3 *34:9 0.0013507
4 *34:7 0.000810076
5 *34:5 0.0450867
6 *34:9 *70:9 0.00107351
7 *34:9 *71:9 0.0229224
8 *34:9 *72:11 0.00208457
9 *34:9 *108:9 0.00100602
10 *34:9 *110:9 0.017908
*RES
1 io_in[5] *34:5 396.084 
2 *34:5 *34:7 4.5 
3 *34:7 *34:9 69.368 
4 *34:9 *419:io_in[5] 9.128 
*END

*D_NET *35 0.107196
*CONN
*P io_in[6] I
*I *419:io_in[6] I *D user_proj_example
*CAP
1 io_in[6] 0.0450663
2 *419:io_in[6] 0.00236017
3 *35:5 0.0474264
4 *419:io_in[6] *72:11 0.00802597
5 *419:io_in[6] *110:9 0.00138394
6 *419:io_in[6] *111:11 0.00293297
*RES
1 io_in[6] *35:5 396.292 
2 *35:5 *419:io_in[6] 45.348 
*END

*D_NET *36 0.0923471
*CONN
*P io_in[7] I
*I *419:io_in[7] I *D user_proj_example
*CAP
1 io_in[7] 0.0451126
2 *419:io_in[7] 0.00106096
3 *36:5 0.0461736
*RES
1 io_in[7] *36:5 396.916 
2 *36:5 *419:io_in[7] 18.516 
*END

*D_NET *39 0.260382
*CONN
*P io_oeb[0] O
*I *419:io_oeb[0] O *D user_proj_example
*CAP
1 io_oeb[0] 0.045218
2 *419:io_oeb[0] 0.000496524
3 *39:11 0.045218
4 *39:9 0.00408341
5 *39:7 0.00457994
6 *39:9 *77:9 0.0877841
7 *39:9 *88:9 0.0730021
*RES
1 *419:io_oeb[0] *39:7 8.92 
2 *39:7 *39:9 231.4 
3 *39:9 *39:11 4.5 
4 *39:11 io_oeb[0] 396.292 
*END

*D_NET *50 0.223247
*CONN
*P io_oeb[1] O
*I *419:io_oeb[1] O *D user_proj_example
*CAP
1 io_oeb[1] 0.0451943
2 *419:io_oeb[1] 0.000541737
3 *50:11 0.0451943
4 *50:9 0.00536785
5 *50:7 0.00590959
6 *50:9 *61:9 0.0482015
7 *50:9 *88:9 0.0728378
*RES
1 *419:io_oeb[1] *50:7 9.336 
2 *50:7 *50:9 194.168 
3 *50:9 *50:11 4.5 
4 *50:11 io_oeb[1] 395.876 
*END

*D_NET *61 0.194008
*CONN
*P io_oeb[2] O
*I *419:io_oeb[2] O *D user_proj_example
*CAP
1 io_oeb[2] 0.0451714
2 *419:io_oeb[2] 0.000607356
3 *61:11 0.0451714
4 *61:9 0.00398936
5 *61:7 0.00459672
6 *61:9 *71:9 0.00115677
7 *61:9 *108:9 0.0430751
8 *61:9 *109:9 0.0020381
9 *50:9 *61:9 0.0482015
*RES
1 *419:io_oeb[2] *61:7 9.544 
2 *61:7 *61:9 156.728 
3 *61:9 *61:11 4.5 
4 *61:11 io_oeb[2] 395.668 
*END

*D_NET *62 0.112453
*CONN
*P io_oeb[30] O
*I *419:io_oeb[8] O *D user_proj_example
*CAP
1 io_oeb[30] 0.000878653
2 *419:io_oeb[8] 0.0455308
3 *62:19 1.69549e-05
4 *62:8 0.00336022
5 *62:4 0.0479954
6 *62:8 *100:8 0.0125006
7 *25:11 *62:8 0.00217008
*RES
1 *419:io_oeb[8] *62:4 400.608 
2 *62:4 *62:8 47.868 
3 *62:8 io_oeb[30] 12.04 
4 *419:io_oeb[8] *62:19 0.156 
*END

*D_NET *63 0.118345
*CONN
*P io_oeb[31] O
*I *419:io_oeb[9] O *D user_proj_example
*CAP
1 io_oeb[31] 0.0590474
2 *419:io_oeb[9] 0.000124991
3 *63:5 0.0591724
*RES
1 *419:io_oeb[9] *63:5 0.884 
2 *63:5 io_oeb[31] 408.148 
*END

*D_NET *64 0.109446
*CONN
*P io_oeb[32] O
*I *419:io_oeb[10] O *D user_proj_example
*CAP
1 io_oeb[32] 0.00101831
2 *419:io_oeb[10] 0.0455975
3 *64:19 1.69549e-05
4 *64:8 0.00348792
5 *64:4 0.0480502
6 *64:8 io_out[32] 0.00602377
7 *64:8 *65:8 0.00205112
8 *64:8 *103:8 0.00207912
9 *27:9 *64:8 0.00112146
*RES
1 *419:io_oeb[10] *64:4 401.024 
2 *64:4 *64:8 45.788 
3 *64:8 io_oeb[32] 11.624 
4 *419:io_oeb[10] *64:19 0.156 
*END

*D_NET *65 0.157968
*CONN
*P io_oeb[33] O
*I *419:io_oeb[11] O *D user_proj_example
*CAP
1 io_oeb[33] 0.000834531
2 *419:io_oeb[11] 0.0455965
3 *65:19 1.69549e-05
4 *65:8 0.00150418
5 *65:6 0.000669646
6 *65:4 0.0455795
7 *65:8 *66:8 0.000501914
8 *65:8 *103:8 0.0230392
9 *65:8 *105:8 0.00940451
10 *28:9 *65:8 0.0287701
11 *64:8 *65:8 0.00205112
*RES
1 *419:io_oeb[11] *65:4 400.816 
2 *65:4 *65:6 4.5 
3 *65:6 *65:8 83.928 
4 *65:8 io_oeb[33] 11.832 
5 *419:io_oeb[11] *65:19 0.156 
*END

*D_NET *66 0.192093
*CONN
*P io_oeb[34] O
*I *419:io_oeb[12] O *D user_proj_example
*CAP
1 io_oeb[34] 0.00115067
2 *419:io_oeb[12] 0.0455297
3 *66:19 1.69549e-05
4 *66:8 0.00204872
5 *66:6 0.000898048
6 *66:4 0.0455128
7 *66:8 *103:8 0.00856138
8 *66:8 *104:8 0.0399833
9 *66:8 *105:8 0.0407486
10 *29:11 *66:8 0.00714095
11 *65:8 *66:8 0.000501914
*RES
1 *419:io_oeb[12] *66:4 400.4 
2 *66:4 *66:6 4.5 
3 *66:6 *66:8 126.152 
4 *66:8 io_oeb[34] 12.248 
5 *419:io_oeb[12] *66:19 0.156 
*END

*D_NET *67 0.16981
*CONN
*P io_oeb[35] O
*I *419:io_oeb[13] O *D user_proj_example
*CAP
1 io_oeb[35] 0.00136941
2 *419:io_oeb[13] 0.0574703
3 *67:19 2.20572e-05
4 *67:8 0.0274347
5 *67:6 0.0260653
6 *67:4 0.0574482
*RES
1 *419:io_oeb[13] *67:4 397.28 
2 *67:4 *67:6 4.5 
3 *67:6 *67:8 168.584 
4 *67:8 io_oeb[35] 15.368 
5 *419:io_oeb[13] *67:19 0.156 
*END

*D_NET *68 0.241353
*CONN
*P io_oeb[36] O
*I *419:io_oeb[14] O *D user_proj_example
*CAP
1 io_oeb[36] 0.000834531
2 *419:io_oeb[14] 0.045704
3 *68:19 1.69549e-05
4 *68:8 0.0055846
5 *68:6 0.00475007
6 *68:4 0.045687
7 *68:8 *105:8 0.0425852
8 *68:8 *107:8 0.0747918
9 *28:9 *68:8 0.000538336
10 *30:9 *68:8 0.0208607
*RES
1 *419:io_oeb[14] *68:4 400.816 
2 *68:4 *68:6 4.5 
3 *68:6 *68:8 211.016 
4 *68:8 io_oeb[36] 11.832 
5 *419:io_oeb[14] *68:19 0.156 
*END

*D_NET *69 0.2689
*CONN
*P io_oeb[37] O
*I *419:io_oeb[15] O *D user_proj_example
*CAP
1 io_oeb[37] 0.045901
2 *419:io_oeb[15] 0.000573447
3 *69:19 1.69549e-05
4 *69:10 0.045901
5 *69:8 0.00618365
6 *69:6 0.00674014
7 *69:8 *106:30 0.0823967
8 *30:32 *69:8 0.0811872
*RES
1 *419:io_oeb[15] *69:6 9.076 
2 *69:6 *69:8 253.864 
3 *69:8 *69:10 4.5 
4 *69:10 io_oeb[37] 403.572 
5 *419:io_oeb[15] *69:19 0.156 
*END

*D_NET *70 0.149575
*CONN
*P io_oeb[3] O
*I *419:io_oeb[3] O *D user_proj_example
*CAP
1 io_oeb[3] 0.0450178
2 *419:io_oeb[3] 0.000674085
3 *70:11 0.0450178
4 *70:9 0.00715386
5 *70:7 0.00782794
6 *70:9 *108:9 0.0428101
7 *12:9 *70:9 0
8 *23:9 *70:9 0
9 *34:9 *70:9 0.00107351
*RES
1 *419:io_oeb[3] *70:7 9.96 
2 *70:7 *70:9 119.288 
3 *70:9 *70:11 4.5 
4 *70:11 io_oeb[3] 395.252 
*END

*D_NET *71 0.14955
*CONN
*P io_oeb[4] O
*I *419:io_oeb[4] O *D user_proj_example
*CAP
1 io_oeb[4] 0.0451523
2 *419:io_oeb[4] 0.00051804
3 *71:11 0.0451523
4 *71:9 0.000863345
5 *71:7 0.00138139
6 *71:9 *72:11 0.0032256
7 *71:9 *108:9 0.00127836
8 *71:9 *109:9 0.0278991
9 *34:9 *71:9 0.0229224
10 *61:9 *71:9 0.00115677
*RES
1 *419:io_oeb[4] *71:7 8.92 
2 *71:7 *71:9 81.848 
3 *71:9 *71:11 4.5 
4 *71:11 io_oeb[4] 396.292 
*END

*D_NET *72 0.110337
*CONN
*P io_oeb[5] O
*I *419:io_oeb[5] O *D user_proj_example
*CAP
1 io_oeb[5] 0.0451319
2 *419:io_oeb[5] 0.000473918
3 *72:11 0.0478124
4 *72:7 0.0031544
5 *72:11 *110:9 0.000427749
6 *419:io_in[6] *72:11 0.00802597
7 *34:9 *72:11 0.00208457
8 *71:9 *72:11 0.0032256
*RES
1 *419:io_oeb[5] *72:7 8.712 
2 *72:7 *72:11 48.7 
3 *72:11 io_oeb[5] 396.5 
*END

*D_NET *73 0.0928095
*CONN
*P io_oeb[6] O
*I *419:io_oeb[6] O *D user_proj_example
*CAP
1 io_oeb[6] 0.0451126
2 *419:io_oeb[6] 0.00129214
3 *73:11 0.0464047
*RES
1 *419:io_oeb[6] *73:11 19.764 
2 *73:11 io_oeb[6] 396.916 
*END

*D_NET *74 0.0980243
*CONN
*P io_oeb[7] O
*I *419:io_oeb[7] O *D user_proj_example
*CAP
1 io_oeb[7] 0.0450674
2 *419:io_oeb[7] 0.00394476
3 *74:11 0.0490121
*RES
1 *419:io_oeb[7] *74:11 43.892 
2 *74:11 io_oeb[7] 396.5 
*END

*D_NET *77 0.214145
*CONN
*P io_out[0] O
*I *419:io_out[0] O *D user_proj_example
*CAP
1 io_out[0] 0.0416254
2 *419:io_out[0] 0.000473918
3 *77:11 0.0416254
4 *77:9 0.0162601
5 *77:7 0.016734
6 io_out[0] *138:9 0.000299635
7 io_out[0] *145:9 0.0023227
8 io_out[0] *233:9 0
9 io_out[0] *235:9 0
10 io_out[0] *236:9 0
11 io_out[0] *290:9 0.00701971
12 *39:9 *77:9 0.0877841
*RES
1 *419:io_out[0] *77:7 8.712 
2 *77:7 *77:9 244.088 
3 *77:9 *77:11 4.5 
4 *77:11 io_out[0] 396.5 
*END

*D_NET *88 0.243905
*CONN
*P io_out[1] O
*I *419:io_out[1] O *D user_proj_example
*CAP
1 io_out[1] 0.0452169
2 *419:io_out[1] 0.000519131
3 *88:11 0.0452169
4 *88:9 0.00329654
5 *88:7 0.00381567
6 *39:9 *88:9 0.0730021
7 *50:9 *88:9 0.0728378
*RES
1 *419:io_out[1] *88:7 9.128 
2 *88:7 *88:9 206.648 
3 *88:9 *88:11 4.5 
4 *88:11 io_out[1] 396.084 
*END

*D_NET *99 0.21774
*CONN
*P io_out[2] O
*I *419:io_out[2] O *D user_proj_example
*CAP
1 io_out[2] 0.0341601
2 *419:io_out[2] 0.000944253
3 *99:11 0.0341601
4 *99:9 0.00402871
5 *99:7 0.00497296
6 io_out[2] *227:9 0.0287505
7 *23:9 *99:9 0.0627828
8 *32:9 *99:9 0.0479407
*RES
1 *419:io_out[2] *99:7 12.248 
2 *99:7 *99:9 169.208 
3 *99:9 *99:11 4.5 
4 *99:11 io_out[2] 392.964 
*END

*D_NET *100 0.129644
*CONN
*P io_out[30] O
*I *419:io_out[8] O *D user_proj_example
*CAP
1 io_out[30] 0.000834531
2 *419:io_out[8] 0.0455749
3 *100:19 1.69549e-05
4 *100:8 0.0028957
5 *100:6 0.00206116
6 *100:4 0.045558
7 *24:9 *100:8 0.0181472
8 *25:11 *100:8 0.00205522
9 *62:8 *100:8 0.0125006
*RES
1 *419:io_out[8] *100:4 400.816 
2 *100:4 *100:6 4.5 
3 *100:6 *100:8 57.512 
4 *100:8 io_out[30] 11.832 
5 *419:io_out[8] *100:19 0.156 
*END

*D_NET *101 0.097114
*CONN
*P io_out[31] O
*I *419:io_out[9] O *D user_proj_example
*CAP
1 io_out[31] 0.00240207
2 *419:io_out[9] 0.0455534
3 *101:19 1.69549e-05
4 *101:4 0.0479385
5 *25:11 io_out[31] 0.00120307
*RES
1 *419:io_out[9] *101:4 400.816 
2 *101:4 io_out[31] 31.412 
3 *419:io_out[9] *101:19 0.156 
*END

*D_NET *102 0.104663
*CONN
*P io_out[32] O
*I *419:io_out[10] O *D user_proj_example
*CAP
1 io_out[32] 0.00299463
2 *419:io_out[10] 0.0402038
3 *102:19 1.69549e-05
4 *102:4 0.0431815
5 *26:5 *102:4 0.0117095
6 *27:9 io_out[32] 0.000532961
7 *64:8 io_out[32] 0.00602377
*RES
1 *419:io_out[10] *102:4 400.816 
2 *102:4 io_out[32] 43.476 
3 *419:io_out[10] *102:19 0.156 
*END

*D_NET *103 0.145252
*CONN
*P io_out[33] O
*I *419:io_out[11] O *D user_proj_example
*CAP
1 io_out[33] 0.000878653
2 *419:io_out[11] 0.0455523
3 *103:19 1.69549e-05
4 *103:8 0.0011499
5 *103:6 0.000271252
6 *103:4 0.0455354
7 *103:8 *104:8 0.000876065