*SPEF "ieee 1481-1999"
*DESIGN "user_project_wrapper"
*DATE "11:11:11 Fri 11 11, 1111"
*VENDOR "OpenRCX"
*PROGRAM "Parallel Extraction"
*VERSION "1.0"
*DESIGN_FLOW "NAME_SCOPE LOCAL" "PIN_CAP NONE"
*DIVIDER /
*DELIMITER :
*BUS_DELIMITER []
*T_UNIT 1 NS
*C_UNIT 1 PF
*R_UNIT 1 OHM
*L_UNIT 1 HENRY

*NAME_MAP
*1 io_in[0]
*2 io_in[10]
*3 io_in[11]
*4 io_in[12]
*5 io_in[13]
*6 io_in[14]
*7 io_in[15]
*8 io_in[16]
*9 io_in[17]
*10 io_in[18]
*11 io_in[19]
*12 io_in[1]
*13 io_in[20]
*14 io_in[21]
*15 io_in[22]
*16 io_in[23]
*17 io_in[24]
*18 io_in[25]
*19 io_in[26]
*20 io_in[27]
*21 io_in[28]
*22 io_in[29]
*23 io_in[2]
*24 io_in[30]
*25 io_in[31]
*26 io_in[32]
*27 io_in[33]
*28 io_in[34]
*29 io_in[35]
*30 io_in[36]
*31 io_in[37]
*32 io_in[3]
*33 io_in[4]
*34 io_in[5]
*35 io_in[6]
*36 io_in[7]
*37 io_in[8]
*38 io_in[9]
*39 io_oeb[0]
*40 io_oeb[10]
*41 io_oeb[11]
*42 io_oeb[12]
*43 io_oeb[13]
*44 io_oeb[14]
*45 io_oeb[15]
*46 io_oeb[16]
*47 io_oeb[17]
*48 io_oeb[18]
*49 io_oeb[19]
*50 io_oeb[1]
*51 io_oeb[20]
*52 io_oeb[21]
*53 io_oeb[22]
*54 io_oeb[23]
*55 io_oeb[24]
*56 io_oeb[25]
*57 io_oeb[26]
*58 io_oeb[27]
*59 io_oeb[28]
*60 io_oeb[29]
*61 io_oeb[2]
*62 io_oeb[30]
*63 io_oeb[31]
*64 io_oeb[32]
*65 io_oeb[33]
*66 io_oeb[34]
*67 io_oeb[35]
*68 io_oeb[36]
*69 io_oeb[37]
*70 io_oeb[3]
*71 io_oeb[4]
*72 io_oeb[5]
*73 io_oeb[6]
*74 io_oeb[7]
*75 io_oeb[8]
*76 io_oeb[9]
*77 io_out[0]
*78 io_out[10]
*79 io_out[11]
*80 io_out[12]
*81 io_out[13]
*82 io_out[14]
*83 io_out[15]
*84 io_out[16]
*85 io_out[17]
*86 io_out[18]
*87 io_out[19]
*88 io_out[1]
*89 io_out[20]
*90 io_out[21]
*91 io_out[22]
*92 io_out[23]
*93 io_out[24]
*94 io_out[25]
*95 io_out[26]
*96 io_out[27]
*97 io_out[28]
*98 io_out[29]
*99 io_out[2]
*100 io_out[30]
*101 io_out[31]
*102 io_out[32]
*103 io_out[33]
*104 io_out[34]
*105 io_out[35]
*106 io_out[36]
*107 io_out[37]
*108 io_out[3]
*109 io_out[4]
*110 io_out[5]
*111 io_out[6]
*112 io_out[7]
*113 io_out[8]
*114 io_out[9]
*115 la_data_in[0]
*116 la_data_in[10]
*117 la_data_in[11]
*118 la_data_in[12]
*119 la_data_in[13]
*120 la_data_in[14]
*121 la_data_in[15]
*122 la_data_in[16]
*123 la_data_in[17]
*124 la_data_in[18]
*125 la_data_in[19]
*126 la_data_in[1]
*127 la_data_in[20]
*128 la_data_in[21]
*129 la_data_in[22]
*130 la_data_in[23]
*131 la_data_in[24]
*132 la_data_in[25]
*133 la_data_in[26]
*134 la_data_in[27]
*135 la_data_in[28]
*136 la_data_in[29]
*137 la_data_in[2]
*138 la_data_in[30]
*139 la_data_in[31]
*140 la_data_in[32]
*141 la_data_in[33]
*142 la_data_in[34]
*143 la_data_in[35]
*144 la_data_in[36]
*145 la_data_in[37]
*146 la_data_in[38]
*147 la_data_in[39]
*148 la_data_in[3]
*149 la_data_in[40]
*150 la_data_in[41]
*151 la_data_in[42]
*152 la_data_in[43]
*153 la_data_in[44]
*154 la_data_in[45]
*155 la_data_in[46]
*156 la_data_in[47]
*157 la_data_in[48]
*158 la_data_in[49]
*159 la_data_in[4]
*160 la_data_in[50]
*161 la_data_in[51]
*162 la_data_in[52]
*163 la_data_in[53]
*164 la_data_in[54]
*165 la_data_in[55]
*166 la_data_in[56]
*167 la_data_in[57]
*168 la_data_in[58]
*169 la_data_in[59]
*170 la_data_in[5]
*171 la_data_in[60]
*172 la_data_in[61]
*173 la_data_in[62]
*174 la_data_in[63]
*175 la_data_in[6]
*176 la_data_in[7]
*177 la_data_in[8]
*178 la_data_in[9]
*179 la_data_out[0]
*180 la_data_out[10]
*181 la_data_out[11]
*182 la_data_out[12]
*183 la_data_out[13]
*184 la_data_out[14]
*185 la_data_out[15]
*186 la_data_out[16]
*187 la_data_out[17]
*188 la_data_out[18]
*189 la_data_out[19]
*190 la_data_out[1]
*191 la_data_out[20]
*192 la_data_out[21]
*193 la_data_out[22]
*194 la_data_out[23]
*195 la_data_out[24]
*196 la_data_out[25]
*197 la_data_out[26]
*198 la_data_out[27]
*199 la_data_out[28]
*200 la_data_out[29]
*201 la_data_out[2]
*202 la_data_out[30]
*203 la_data_out[31]
*204 la_data_out[32]
*205 la_data_out[33]
*206 la_data_out[34]
*207 la_data_out[35]
*208 la_data_out[36]
*209 la_data_out[37]
*210 la_data_out[38]
*211 la_data_out[39]
*212 la_data_out[3]
*213 la_data_out[40]
*214 la_data_out[41]
*215 la_data_out[42]
*216 la_data_out[43]
*217 la_data_out[44]
*218 la_data_out[45]
*219 la_data_out[46]
*220 la_data_out[47]
*221 la_data_out[48]
*222 la_data_out[49]
*223 la_data_out[4]
*224 la_data_out[50]
*225 la_data_out[51]
*226 la_data_out[52]
*227 la_data_out[53]
*228 la_data_out[54]
*229 la_data_out[55]
*230 la_data_out[56]
*231 la_data_out[57]
*232 la_data_out[58]
*233 la_data_out[59]
*234 la_data_out[5]
*235 la_data_out[60]
*236 la_data_out[61]
*237 la_data_out[62]
*238 la_data_out[63]
*239 la_data_out[6]
*240 la_data_out[7]
*241 la_data_out[8]
*242 la_data_out[9]
*243 la_oenb[0]
*244 la_oenb[10]
*245 la_oenb[11]
*246 la_oenb[12]
*247 la_oenb[13]
*248 la_oenb[14]
*249 la_oenb[15]
*250 la_oenb[16]
*251 la_oenb[17]
*252 la_oenb[18]
*253 la_oenb[19]
*254 la_oenb[1]
*255 la_oenb[20]
*256 la_oenb[21]
*257 la_oenb[22]
*258 la_oenb[23]
*259 la_oenb[24]
*260 la_oenb[25]
*261 la_oenb[26]
*262 la_oenb[27]
*263 la_oenb[28]
*264 la_oenb[29]
*265 la_oenb[2]
*266 la_oenb[30]
*267 la_oenb[31]
*268 la_oenb[32]
*269 la_oenb[33]
*270 la_oenb[34]
*271 la_oenb[35]
*272 la_oenb[36]
*273 la_oenb[37]
*274 la_oenb[38]
*275 la_oenb[39]
*276 la_oenb[3]
*277 la_oenb[40]
*278 la_oenb[41]
*279 la_oenb[42]
*280 la_oenb[43]
*281 la_oenb[44]
*282 la_oenb[45]
*283 la_oenb[46]
*284 la_oenb[47]
*285 la_oenb[48]
*286 la_oenb[49]
*287 la_oenb[4]
*288 la_oenb[50]
*289 la_oenb[51]
*290 la_oenb[52]
*291 la_oenb[53]
*292 la_oenb[54]
*293 la_oenb[55]
*294 la_oenb[56]
*295 la_oenb[57]
*296 la_oenb[58]
*297 la_oenb[59]
*298 la_oenb[5]
*299 la_oenb[60]
*300 la_oenb[61]
*301 la_oenb[62]
*302 la_oenb[63]
*303 la_oenb[6]
*304 la_oenb[7]
*305 la_oenb[8]
*306 la_oenb[9]
*307 user_clock2
*308 user_irq[0]
*309 user_irq[1]
*310 user_irq[2]
*313 wb_clk_i
*314 wb_rst_i
*315 wbs_ack_o
*316 wbs_adr_i[0]
*317 wbs_adr_i[10]
*318 wbs_adr_i[11]
*319 wbs_adr_i[12]
*320 wbs_adr_i[13]
*321 wbs_adr_i[14]
*322 wbs_adr_i[15]
*323 wbs_adr_i[16]
*324 wbs_adr_i[17]
*325 wbs_adr_i[18]
*326 wbs_adr_i[19]
*327 wbs_adr_i[1]
*328 wbs_adr_i[20]
*329 wbs_adr_i[21]
*330 wbs_adr_i[22]
*331 wbs_adr_i[23]
*332 wbs_adr_i[24]
*333 wbs_adr_i[25]
*334 wbs_adr_i[26]
*335 wbs_adr_i[27]
*336 wbs_adr_i[28]
*337 wbs_adr_i[29]
*338 wbs_adr_i[2]
*339 wbs_adr_i[30]
*340 wbs_adr_i[31]
*341 wbs_adr_i[3]
*342 wbs_adr_i[4]
*343 wbs_adr_i[5]
*344 wbs_adr_i[6]
*345 wbs_adr_i[7]
*346 wbs_adr_i[8]
*347 wbs_adr_i[9]
*348 wbs_cyc_i
*349 wbs_dat_i[0]
*350 wbs_dat_i[10]
*351 wbs_dat_i[11]
*352 wbs_dat_i[12]
*353 wbs_dat_i[13]
*354 wbs_dat_i[14]
*355 wbs_dat_i[15]
*356 wbs_dat_i[16]
*357 wbs_dat_i[17]
*358 wbs_dat_i[18]
*359 wbs_dat_i[19]
*360 wbs_dat_i[1]
*361 wbs_dat_i[20]
*362 wbs_dat_i[21]
*363 wbs_dat_i[22]
*364 wbs_dat_i[23]
*365 wbs_dat_i[24]
*366 wbs_dat_i[25]
*367 wbs_dat_i[26]
*368 wbs_dat_i[27]
*369 wbs_dat_i[28]
*370 wbs_dat_i[29]
*371 wbs_dat_i[2]
*372 wbs_dat_i[30]
*373 wbs_dat_i[31]
*374 wbs_dat_i[3]
*375 wbs_dat_i[4]
*376 wbs_dat_i[5]
*377 wbs_dat_i[6]
*378 wbs_dat_i[7]
*379 wbs_dat_i[8]
*380 wbs_dat_i[9]
*381 wbs_dat_o[0]
*382 wbs_dat_o[10]
*383 wbs_dat_o[11]
*384 wbs_dat_o[12]
*385 wbs_dat_o[13]
*386 wbs_dat_o[14]
*387 wbs_dat_o[15]
*388 wbs_dat_o[16]
*389 wbs_dat_o[17]
*390 wbs_dat_o[18]
*391 wbs_dat_o[19]
*392 wbs_dat_o[1]
*393 wbs_dat_o[20]
*394 wbs_dat_o[21]
*395 wbs_dat_o[22]
*396 wbs_dat_o[23]
*397 wbs_dat_o[24]
*398 wbs_dat_o[25]
*399 wbs_dat_o[26]
*400 wbs_dat_o[27]
*401 wbs_dat_o[28]
*402 wbs_dat_o[29]
*403 wbs_dat_o[2]
*404 wbs_dat_o[30]
*405 wbs_dat_o[31]
*406 wbs_dat_o[3]
*407 wbs_dat_o[4]
*408 wbs_dat_o[5]
*409 wbs_dat_o[6]
*410 wbs_dat_o[7]
*411 wbs_dat_o[8]
*412 wbs_dat_o[9]
*413 wbs_sel_i[0]
*414 wbs_sel_i[1]
*415 wbs_sel_i[2]
*416 wbs_sel_i[3]
*417 wbs_stb_i
*418 wbs_we_i
*419 mprj
*420 titan_instance

*PORTS
io_in[0] I
io_in[10] I
io_in[11] I
io_in[12] I
io_in[13] I
io_in[14] I
io_in[15] I
io_in[16] I
io_in[17] I
io_in[18] I
io_in[19] I
io_in[1] I
io_in[20] I
io_in[21] I
io_in[22] I
io_in[23] I
io_in[24] I
io_in[25] I
io_in[26] I
io_in[27] I
io_in[28] I
io_in[29] I
io_in[2] I
io_in[30] I
io_in[31] I
io_in[32] I
io_in[33] I
io_in[34] I
io_in[35] I
io_in[36] I
io_in[37] I
io_in[3] I
io_in[4] I
io_in[5] I
io_in[6] I
io_in[7] I
io_in[8] I
io_in[9] I
io_oeb[0] O
io_oeb[10] O
io_oeb[11] O
io_oeb[12] O
io_oeb[13] O
io_oeb[14] O
io_oeb[15] O
io_oeb[16] O
io_oeb[17] O
io_oeb[18] O
io_oeb[19] O
io_oeb[1] O
io_oeb[20] O
io_oeb[21] O
io_oeb[22] O
io_oeb[23] O
io_oeb[24] O
io_oeb[25] O
io_oeb[26] O
io_oeb[27] O
io_oeb[28] O
io_oeb[29] O
io_oeb[2] O
io_oeb[30] O
io_oeb[31] O
io_oeb[32] O
io_oeb[33] O
io_oeb[34] O
io_oeb[35] O
io_oeb[36] O
io_oeb[37] O
io_oeb[3] O
io_oeb[4] O
io_oeb[5] O
io_oeb[6] O
io_oeb[7] O
io_oeb[8] O
io_oeb[9] O
io_out[0] O
io_out[10] O
io_out[11] O
io_out[12] O
io_out[13] O
io_out[14] O
io_out[15] O
io_out[16] O
io_out[17] O
io_out[18] O
io_out[19] O
io_out[1] O
io_out[20] O
io_out[21] O
io_out[22] O
io_out[23] O
io_out[24] O
io_out[25] O
io_out[26] O
io_out[27] O
io_out[28] O
io_out[29] O
io_out[2] O
io_out[30] O
io_out[31] O
io_out[32] O
io_out[33] O
io_out[34] O
io_out[35] O
io_out[36] O
io_out[37] O
io_out[3] O
io_out[4] O
io_out[5] O
io_out[6] O
io_out[7] O
io_out[8] O
io_out[9] O
la_data_in[0] I
la_data_in[10] I
la_data_in[11] I
la_data_in[12] I
la_data_in[13] I
la_data_in[14] I
la_data_in[15] I
la_data_in[16] I
la_data_in[17] I
la_data_in[18] I
la_data_in[19] I
la_data_in[1] I
la_data_in[20] I
la_data_in[21] I
la_data_in[22] I
la_data_in[23] I
la_data_in[24] I
la_data_in[25] I
la_data_in[26] I
la_data_in[27] I
la_data_in[28] I
la_data_in[29] I
la_data_in[2] I
la_data_in[30] I
la_data_in[31] I
la_data_in[32] I
la_data_in[33] I
la_data_in[34] I
la_data_in[35] I
la_data_in[36] I
la_data_in[37] I
la_data_in[38] I
la_data_in[39] I
la_data_in[3] I
la_data_in[40] I
la_data_in[41] I
la_data_in[42] I
la_data_in[43] I
la_data_in[44] I
la_data_in[45] I
la_data_in[46] I
la_data_in[47] I
la_data_in[48] I
la_data_in[49] I
la_data_in[4] I
la_data_in[50] I
la_data_in[51] I
la_data_in[52] I
la_data_in[53] I
la_data_in[54] I
la_data_in[55] I
la_data_in[56] I
la_data_in[57] I
la_data_in[58] I
la_data_in[59] I
la_data_in[5] I
la_data_in[60] I
la_data_in[61] I
la_data_in[62] I
la_data_in[63] I
la_data_in[6] I
la_data_in[7] I
la_data_in[8] I
la_data_in[9] I
la_data_out[0] O
la_data_out[10] O
la_data_out[11] O
la_data_out[12] O
la_data_out[13] O
la_data_out[14] O
la_data_out[15] O
la_data_out[16] O
la_data_out[17] O
la_data_out[18] O
la_data_out[19] O
la_data_out[1] O
la_data_out[20] O
la_data_out[21] O
la_data_out[22] O
la_data_out[23] O
la_data_out[24] O
la_data_out[25] O
la_data_out[26] O
la_data_out[27] O
la_data_out[28] O
la_data_out[29] O
la_data_out[2] O
la_data_out[30] O
la_data_out[31] O
la_data_out[32] O
la_data_out[33] O
la_data_out[34] O
la_data_out[35] O
la_data_out[36] O
la_data_out[37] O
la_data_out[38] O
la_data_out[39] O
la_data_out[3] O
la_data_out[40] O
la_data_out[41] O
la_data_out[42] O
la_data_out[43] O
la_data_out[44] O
la_data_out[45] O
la_data_out[46] O
la_data_out[47] O
la_data_out[48] O
la_data_out[49] O
la_data_out[4] O
la_data_out[50] O
la_data_out[51] O
la_data_out[52] O
la_data_out[53] O
la_data_out[54] O
la_data_out[55] O
la_data_out[56] O
la_data_out[57] O
la_data_out[58] O
la_data_out[59] O
la_data_out[5] O
la_data_out[60] O
la_data_out[61] O
la_data_out[62] O
la_data_out[63] O
la_data_out[6] O
la_data_out[7] O
la_data_out[8] O
la_data_out[9] O
la_oenb[0] I
la_oenb[10] I
la_oenb[11] I
la_oenb[12] I
la_oenb[13] I
la_oenb[14] I
la_oenb[15] I
la_oenb[16] I
la_oenb[17] I
la_oenb[18] I
la_oenb[19] I
la_oenb[1] I
la_oenb[20] I
la_oenb[21] I
la_oenb[22] I
la_oenb[23] I
la_oenb[24] I
la_oenb[25] I
la_oenb[26] I
la_oenb[27] I
la_oenb[28] I
la_oenb[29] I
la_oenb[2] I
la_oenb[30] I
la_oenb[31] I
la_oenb[32] I
la_oenb[33] I
la_oenb[34] I
la_oenb[35] I
la_oenb[36] I
la_oenb[37] I
la_oenb[38] I
la_oenb[39] I
la_oenb[3] I
la_oenb[40] I
la_oenb[41] I
la_oenb[42] I
la_oenb[43] I
la_oenb[44] I
la_oenb[45] I
la_oenb[46] I
la_oenb[47] I
la_oenb[48] I
la_oenb[49] I
la_oenb[4] I
la_oenb[50] I
la_oenb[51] I
la_oenb[52] I
la_oenb[53] I
la_oenb[54] I
la_oenb[55] I
la_oenb[56] I
la_oenb[57] I
la_oenb[58] I
la_oenb[59] I
la_oenb[5] I
la_oenb[60] I
la_oenb[61] I
la_oenb[62] I
la_oenb[63] I
la_oenb[6] I
la_oenb[7] I
la_oenb[8] I
la_oenb[9] I
user_clock2 I
user_irq[0] O
user_irq[1] O
user_irq[2] O
wb_clk_i I
wb_rst_i I
wbs_ack_o O
wbs_adr_i[0] I
wbs_adr_i[10] I
wbs_adr_i[11] I
wbs_adr_i[12] I
wbs_adr_i[13] I
wbs_adr_i[14] I
wbs_adr_i[15] I
wbs_adr_i[16] I
wbs_adr_i[17] I
wbs_adr_i[18] I
wbs_adr_i[19] I
wbs_adr_i[1] I
wbs_adr_i[20] I
wbs_adr_i[21] I
wbs_adr_i[22] I
wbs_adr_i[23] I
wbs_adr_i[24] I
wbs_adr_i[25] I
wbs_adr_i[26] I
wbs_adr_i[27] I
wbs_adr_i[28] I
wbs_adr_i[29] I
wbs_adr_i[2] I
wbs_adr_i[30] I
wbs_adr_i[31] I
wbs_adr_i[3] I
wbs_adr_i[4] I
wbs_adr_i[5] I
wbs_adr_i[6] I
wbs_adr_i[7] I
wbs_adr_i[8] I
wbs_adr_i[9] I
wbs_cyc_i I
wbs_dat_i[0] I
wbs_dat_i[10] I
wbs_dat_i[11] I
wbs_dat_i[12] I
wbs_dat_i[13] I
wbs_dat_i[14] I
wbs_dat_i[15] I
wbs_dat_i[16] I
wbs_dat_i[17] I
wbs_dat_i[18] I
wbs_dat_i[19] I
wbs_dat_i[1] I
wbs_dat_i[20] I
wbs_dat_i[21] I
wbs_dat_i[22] I
wbs_dat_i[23] I
wbs_dat_i[24] I
wbs_dat_i[25] I
wbs_dat_i[26] I
wbs_dat_i[27] I
wbs_dat_i[28] I
wbs_dat_i[29] I
wbs_dat_i[2] I
wbs_dat_i[30] I
wbs_dat_i[31] I
wbs_dat_i[3] I
wbs_dat_i[4] I
wbs_dat_i[5] I
wbs_dat_i[6] I
wbs_dat_i[7] I
wbs_dat_i[8] I
wbs_dat_i[9] I
wbs_dat_o[0] O
wbs_dat_o[10] O
wbs_dat_o[11] O
wbs_dat_o[12] O
wbs_dat_o[13] O
wbs_dat_o[14] O
wbs_dat_o[15] O
wbs_dat_o[16] O
wbs_dat_o[17] O
wbs_dat_o[18] O
wbs_dat_o[19] O
wbs_dat_o[1] O
wbs_dat_o[20] O
wbs_dat_o[21] O
wbs_dat_o[22] O
wbs_dat_o[23] O
wbs_dat_o[24] O
wbs_dat_o[25] O
wbs_dat_o[26] O
wbs_dat_o[27] O
wbs_dat_o[28] O
wbs_dat_o[29] O
wbs_dat_o[2] O
wbs_dat_o[30] O
wbs_dat_o[31] O
wbs_dat_o[3] O
wbs_dat_o[4] O
wbs_dat_o[5] O
wbs_dat_o[6] O
wbs_dat_o[7] O
wbs_dat_o[8] O
wbs_dat_o[9] O
wbs_sel_i[0] I
wbs_sel_i[1] I
wbs_sel_i[2] I
wbs_sel_i[3] I
wbs_stb_i I
wbs_we_i I

*D_NET *1 0.150847
*CONN
*P io_in[0] I
*I *419:io_in[0] I *D user_proj_example
*CAP
1 io_in[0] 0.027427
2 *419:io_in[0] 0.00632473
3 *1:11 0.00632473
4 *1:9 0.0286523
5 *1:7 0.0286523
6 *1:5 0.027427
7 *1:5 *152:9 0.00556282
8 *1:5 *154:9 0.000563813
9 *1:5 *157:9 0
10 *1:5 *161:9 0
11 *1:5 *164:9 0
12 *1:5 *167:9 0
13 *1:5 *169:9 0.0199125
*RES
1 io_in[0] *1:5 297.225 
2 *1:5 *1:7 4.5 
3 *1:7 *1:9 222.03 
4 *1:9 *1:11 4.5 
5 *1:11 *419:io_in[0] 49.545 
*END

*D_NET *12 0.168996
*CONN
*P io_in[1] I
*I *419:io_in[1] I *D user_proj_example
*CAP
1 io_in[1] 0.0425017
2 *419:io_in[1] 0.000857985
3 *12:9 0.0166031
4 *12:7 0.0157451
5 *12:5 0.0425017
6 *12:9 *23:9 0.050786
7 *12:9 *70:9 0
8 *12:9 *108:9 0
*RES
1 io_in[1] *12:5 340.425 
2 *12:5 *12:7 4.5 
3 *12:7 *12:9 189.63 
4 *12:9 *419:io_in[1] 10.845 
*END

*D_NET *23 0.199895
*CONN
*P io_in[2] I
*I *419:io_in[2] I *D user_proj_example
*CAP
1 io_in[2] 0.0424801
2 *419:io_in[2] 0.00104767
3 *23:9 0.00468141
4 *23:7 0.00363374
5 *23:5 0.0424801
6 *23:9 *70:9 0
7 *23:9 *99:9 0.0547858
8 *12:9 *23:9 0.050786
*RES
1 io_in[2] *23:5 340.245 
2 *23:5 *23:7 4.5 
3 *23:7 *23:9 157.23 
4 *23:9 *419:io_in[2] 11.025 
*END

*D_NET *24 0.114223
*CONN
*P io_in[30] I
*I *419:io_in[8] I *D user_proj_example
*CAP
1 io_in[30] 0.000751787
2 *419:io_in[8] 0.0432078
3 *24:16 1.61845e-05
4 *24:11 0.0431916
5 *24:9 0.00523455
6 *24:7 0.00598634
7 *24:9 *100:8 0.015835
*RES
1 io_in[30] *24:7 10.665 
2 *24:7 *24:9 62.01 
3 *24:9 *24:11 4.5 
4 *24:11 *419:io_in[8] 347.04 
5 *419:io_in[8] *24:16 0.135 
*END

*D_NET *25 0.0968735
*CONN
*P io_in[31] I
*I *419:io_in[9] I *D user_proj_example
*CAP
1 io_in[31] 0.00280594
2 *419:io_in[9] 0.0431908
3 *25:16 1.61845e-05
4 *25:11 0.0459806
5 *25:11 io_out[31] 0.00104993
6 *25:11 *62:10 0.00203637
7 *25:11 *100:8 0.00179367
*RES
1 io_in[31] *25:11 40.455 
2 *25:11 *419:io_in[9] 347.04 
3 *419:io_in[9] *25:16 0.135 
*END

*D_NET *26 0.0915621
*CONN
*P io_in[32] I
*I *419:io_in[10] I *D user_proj_example
*CAP
1 io_in[32] 0.0380629
2 *419:io_in[10] 0.00206413
3 *26:16 1.61845e-05
4 *26:5 0.0401108
5 *26:5 *102:4 0.0113081
*RES
1 io_in[32] *26:5 347.805 
2 *26:5 *419:io_in[10] 26.01 
3 *419:io_in[10] *26:16 0.135 
*END

*D_NET *27 0.110611
*CONN
*P io_in[33] I
*I *419:io_in[11] I *D user_proj_example
*CAP
1 io_in[33] 0.000905811
2 *419:io_in[11] 0.0430876
3 *27:16 1.61845e-05
4 *27:11 0.0430714
5 *27:9 0.00321351
6 *27:7 0.00411932
7 *27:9 io_out[32] 0.000347505
8 *27:9 *64:10 0.00077267
9 *27:9 *103:8 0.0150774
*RES
1 io_in[33] *27:7 11.385 
2 *27:7 *27:9 47.97 
3 *27:9 *27:11 4.5 
4 *27:11 *419:io_in[11] 346.32 
5 *419:io_in[11] *27:16 0.135 
*END

*D_NET *28 0.149319
*CONN
*P io_in[34] I
*I *419:io_in[12] I *D user_proj_example
*CAP
1 io_in[34] 0.000790293
2 *419:io_in[12] 0.0432031
3 *28:16 1.61845e-05
4 *28:11 0.0431869
5 *28:9 0.000934692
6 *28:7 0.00172498
7 *28:9 *65:8 0.0250942
8 *28:9 *68:8 0.000469807
9 *28:9 *104:8 0.0298883
10 *28:9 *105:8 0.00401059
*RES
1 io_in[34] *28:7 10.845 
2 *28:7 *28:9 84.69 
3 *28:9 *28:11 4.5 
4 *28:11 *419:io_in[12] 346.86 
5 *419:io_in[12] *28:16 0.135 
*END

*D_NET *29 0.182272
*CONN
*P io_in[35] I
*I *420:spi_pico_i I *D titan
*I *419:io_in[13] I *D user_proj_example
*CAP
1 io_in[35] 0.00400328
2 *420:spi_pico_i 0.000341418
3 *419:io_in[13] 0.0284272
4 *29:37 0.00778136
5 *29:35 0.00743994
6 *29:33 0.0196058
7 *29:31 0.0253418
8 *29:24 1.61845e-05
9 *29:19 0.028411
10 *29:17 0.0136902
11 *29:15 0.0136902
12 *29:13 0.0172308
13 *29:11 0.015498
14 *29:11 *30:39 0.000795164
*RES
1 io_in[35] *29:11 39.7704 
2 *29:11 *29:13 44.1982 
3 *29:13 *29:15 4.5 
4 *29:15 *29:17 110.575 
5 *29:17 *29:19 4.5 
6 *29:19 *419:io_in[13] 229.68 
7 *419:io_in[13] *29:24 0.135 
8 *29:13 *29:31 26.6291 
9 *29:31 *29:33 160.685 
10 *29:33 *29:35 4.5 
11 *29:35 *29:37 47.79 
12 *29:37 *420:spi_pico_i 7.065 
*END

*D_NET *30 0.180767
*CONN
*P io_in[36] I
*I *419:io_in[14] I *D user_proj_example
*I *420:spi_clock_i I *D titan
*CAP
1 io_in[36] 0.00258629
2 *419:io_in[14] 0.0413525
3 *420:spi_clock_i 0.000341418
4 *30:46 1.61845e-05
5 *30:41 0.0413364
6 *30:39 0.0203069
7 *30:37 0.0206308
8 *30:21 0.013296
9 *30:19 0.0129546
10 *30:17 0.0070145
11 *30:15 0.00992472
12 *30:17 *31:11 0
13 *30:17 *313:5 0.00969808
14 *30:37 *313:5 0.000147297
15 *30:39 *313:17 0.000366407
16 *29:11 *30:39 0.000795164
*RES
1 io_in[36] *30:15 24.165 
2 *30:15 *30:17 82.53 
3 *30:17 *30:19 4.5 
4 *30:19 *30:21 83.79 
5 *30:21 *420:spi_clock_i 7.065 
6 *30:15 *30:37 11.88 
7 *30:37 *30:39 156.15 
8 *30:39 *30:41 4.5 
9 *30:41 *419:io_in[14] 333.54 
10 *419:io_in[14] *30:46 0.135 
*END

*D_NET *31 0.197333
*CONN
*P io_in[37] I
*I *419:io_in[15] I *D user_proj_example
*I *420:spi_cs_i I *D titan
*CAP
1 io_in[37] 0.00397782
2 *419:io_in[15] 0.000503792
3 *420:spi_cs_i 0
4 *31:31 1.61845e-05
5 *31:24 0.0140514
6 *31:22 0.0135638
7 *31:20 0.0306786
8 *31:13 0.0409304
9 *31:11 0.0142296
10 *31:24 *106:30 0.079284
11 *31:24 *243:5 9.70016e-05
12 *30:17 *31:11 0
*RES
1 io_in[37] *31:11 38.655 
2 *31:11 *31:13 83.43 
3 *31:13 *420:spi_cs_i 4.5 
4 *31:13 *31:20 246.33 
5 *31:20 *31:22 4.5 
6 *31:22 *31:24 205.11 
7 *31:24 *419:io_in[15] 8.46 
8 *419:io_in[15] *31:31 0.135 
*END

*D_NET *32 0.164053
*CONN
*P io_in[3] I
*I *419:io_in[3] I *D user_proj_example
*CAP
1 io_in[3] 0.0424026
2 *419:io_in[3] 0.000905781
3 *32:9 0.00640124
4 *32:7 0.00549546
5 *32:5 0.0424026
6 *32:9 *33:9 0.0246128
7 *32:9 *99:9 0.0418324
*RES
1 io_in[3] *32:5 339.885 
2 *32:5 *32:7 4.5 
3 *32:7 *32:9 124.83 
4 *32:9 *419:io_in[3] 11.385 
*END

*D_NET *33 0.126522
*CONN
*P io_in[4] I
*I *419:io_in[4] I *D user_proj_example
*CAP
1 io_in[4] 0.0422784
2 *419:io_in[4] 0.000927375
3 *33:9 0.00867607
4 *33:7 0.0077487
5 *33:5 0.0422784
6 *32:9 *33:9 0.0246128
*RES
1 io_in[4] *33:5 339.705 
2 *33:5 *33:7 4.5 
3 *33:7 *33:9 92.43 
4 *33:9 *419:io_in[4] 11.565 
*END

*D_NET *34 0.127411
*CONN
*P io_in[5] I
*I *419:io_in[5] I *D user_proj_example
*CAP
1 io_in[5] 0.042696
2 *419:io_in[5] 0.000509747
3 *34:9 0.00122322
4 *34:7 0.000713474
5 *34:5 0.042696
6 *34:9 *70:9 0.00102417
7 *34:9 *71:9 0.0200024
8 *34:9 *72:9 0.00195957
9 *34:9 *108:9 0.000960062
10 *34:9 *110:9 0.0156264
*RES
1 io_in[5] *34:5 342.765 
2 *34:5 *34:7 4.5 
3 *34:7 *34:9 60.03 
4 *34:9 *419:io_in[5] 8.505 
*END

*D_NET *35 0.100649
*CONN
*P io_in[6] I
*I *419:io_in[6] I *D user_proj_example
*CAP
1 io_in[6] 0.0426837
2 *419:io_in[6] 0.00220898
3 *35:5 0.0448927
4 *419:io_in[6] *72:9 0.00700462
5 *419:io_in[6] *110:9 0.00129946
6 *419:io_in[6] *111:11 0.00255986
*RES
1 io_in[6] *35:5 342.945 
2 *35:5 *419:io_in[6] 40.455 
*END

*D_NET *36 0.087475
*CONN
*P io_in[7] I
*I *419:io_in[7] I *D user_proj_example
*CAP
1 io_in[7] 0.0427315
2 *419:io_in[7] 0.00100598
3 *36:5 0.0437375
*RES
1 io_in[7] *36:5 343.485 
2 *36:5 *419:io_in[7] 17.235 
*END

*D_NET *39 0.234364
*CONN
*P io_oeb[0] O
*I *419:io_oeb[0] O *D user_proj_example
*CAP
1 io_oeb[0] 0.0428038
2 *419:io_oeb[0] 0.000471256
3 *39:11 0.0428038
4 *39:9 0.00375459
5 *39:7 0.00422585
6 *39:9 *77:9 0.0766021
7 *39:9 *88:9 0.0637028
*RES
1 *419:io_oeb[0] *39:7 8.325 
2 *39:7 *39:9 200.25 
3 *39:9 *39:11 4.5 
4 *39:11 io_oeb[0] 342.945 
*END

*D_NET *50 0.202187
*CONN
*P io_oeb[1] O
*I *419:io_oeb[1] O *D user_proj_example
*CAP
1 io_oeb[1] 0.0427776
2 *419:io_oeb[1] 0.000514414
3 *50:11 0.0427776
4 *50:9 0.00499133
5 *50:7 0.00550575
6 *50:9 *61:9 0.0420609
7 *50:9 *88:9 0.0635595
*RES
1 *419:io_oeb[1] *50:7 8.685 
2 *50:7 *50:9 168.03 
3 *50:9 *50:11 4.5 
4 *50:11 io_oeb[1] 342.585 
*END

*D_NET *61 0.17671
*CONN
*P io_oeb[2] O
*I *419:io_oeb[2] O *D user_proj_example
*CAP
1 io_oeb[2] 0.0427555
2 *419:io_oeb[2] 0.000569832
3 *61:11 0.0427555
4 *61:9 0.00367959
5 *61:7 0.00424942
6 *61:9 *71:9 0.00110079
7 *61:9 *108:9 0.0375889
8 *61:9 *109:9 0.00194955
9 *50:9 *61:9 0.0420609
*RES
1 *419:io_oeb[2] *61:7 8.865 
2 *61:7 *61:9 135.63 
3 *61:9 *61:11 4.5 
4 *61:11 io_oeb[2] 342.405 
*END

*D_NET *62 0.105548
*CONN
*P io_oeb[30] O
*I *419:io_oeb[8] O *D user_proj_example
*CAP
1 io_oeb[30] 0.000828799
2 *419:io_oeb[8] 0.0431308
3 *62:19 1.61845e-05
4 *62:10 0.00317119
5 *62:4 0.045457
6 *62:10 *100:8 0.0109079
7 *25:11 *62:10 0.00203637
*RES
1 *419:io_oeb[8] *62:4 346.68 
2 *62:4 *62:10 46.53 
3 *62:10 io_oeb[30] 6.525 
4 *419:io_oeb[8] *62:19 0.135 
*END

*D_NET *63 0.109989
*CONN
*P io_oeb[31] O
*I *419:io_oeb[9] O *D user_proj_example
*CAP
1 io_oeb[31] 0.0548778
2 *419:io_oeb[9] 0.000116681
3 *63:5 0.0549945
*RES
1 *419:io_oeb[9] *63:5 0.765 
2 *63:5 io_oeb[31] 353.205 
*END

*D_NET *64 0.101507
*CONN
*P io_oeb[32] O
*I *419:io_oeb[10] O *D user_proj_example
*CAP
1 io_oeb[32] 0.000948596
2 *419:io_oeb[10] 0.0431908
3 *64:19 1.61845e-05
4 *64:10 0.00345661
5 *64:4 0.0456827
6 *64:10 io_out[32] 0.00525636
7 *64:10 *65:8 0.000847715
8 *64:10 *103:8 0.00133487
9 *27:9 *64:10 0.00077267
*RES
1 *419:io_oeb[10] *64:4 347.04 
2 *64:4 *64:10 44.73 
3 *64:10 io_oeb[32] 6.165 
4 *419:io_oeb[10] *64:19 0.135 
*END

*D_NET *65 0.143898
*CONN
*P io_oeb[33] O
*I *419:io_oeb[11] O *D user_proj_example
*CAP
1 io_oeb[33] 0.000828799
2 *419:io_oeb[11] 0.0431646
3 *65:19 1.61845e-05
4 *65:8 0.00142791
5 *65:6 0.000599114
6 *65:4 0.0431484
7 *65:8 *66:8 0.00047112
8 *65:8 *103:8 0.0200936
9 *65:8 *105:8 0.00820588
10 *28:9 *65:8 0.0250942
11 *64:10 *65:8 0.000847715
*RES
1 *419:io_oeb[11] *65:4 346.68 
2 *65:4 *65:6 4.5 
3 *65:6 *65:8 72.63 
4 *65:8 io_oeb[33] 11.025 
5 *419:io_oeb[11] *65:19 0.135 
*END

*D_NET *66 0.145682
*CONN
*P io_oeb[34] O
*I *419:io_oeb[12] O *D user_proj_example
*CAP
1 io_oeb[34] 0.00110262
2 *419:io_oeb[12] 0.0430876
3 *66:19 1.61845e-05
4 *66:8 0.00800354
5 *66:6 0.00690092
6 *66:4 0.0430714
7 *66:8 *103:8 0.00747109
8 *66:8 *105:8 0.0355572
9 *65:8 *66:8 0.00047112
*RES
1 *419:io_oeb[12] *66:4 346.32 
2 *66:4 *66:6 4.5 
3 *66:6 *66:8 109.17 
4 *66:8 io_oeb[34] 11.385 
5 *419:io_oeb[12] *66:19 0.135 
*END

*D_NET *67 0.158232
*CONN
*P io_oeb[35] O
*I *419:io_oeb[13] O *D user_proj_example
*CAP
1 io_oeb[35] 0.00129253
2 *419:io_oeb[13] 0.0534169
3 *67:19 2.05908e-05
4 *67:8 0.0256991
5 *67:6 0.0244066
6 *67:4 0.0533963
*RES
1 *419:io_oeb[13] *67:4 343.8 
2 *67:4 *67:6 4.5 
3 *67:6 *67:8 145.89 
4 *67:8 io_oeb[35] 13.905 
5 *419:io_oeb[13] *67:19 0.135 
*END

*D_NET *68 0.206741
*CONN
*P io_oeb[36] O
*I *419:io_oeb[14] O *D user_proj_example
*CAP
1 io_oeb[36] 0.000838026
2 *419:io_oeb[14] 0.0432327
3 *68:19 1.61845e-05
4 *68:8 0.00680414
5 *68:6 0.00596612
6 *68:4 0.0432166
7 *68:8 *104:8 0.00375996
8 *68:8 *105:8 0.0371613
9 *68:8 *107:8 0.065276
10 *28:9 *68:8 0.000469807
*RES
1 *419:io_oeb[14] *68:4 346.68 
2 *68:4 *68:6 4.5 
3 *68:6 *68:8 182.61 
4 *68:8 io_oeb[36] 11.025 
5 *419:io_oeb[14] *68:19 0.135 
*END

*D_NET *69 0.202516
*CONN
*P io_oeb[37] O
*I *419:io_oeb[15] O *D user_proj_example
*CAP
1 io_oeb[37] 0.000751787
2 *419:io_oeb[15] 0.0433269
3 *69:19 1.61845e-05
4 *69:8 0.0159423
5 *69:6 0.0151905
6 *69:4 0.0433107
7 *69:8 *106:16 0.00461511
8 *69:8 *107:8 0.0793629
*RES
1 *419:io_oeb[15] *69:4 347.04 
2 *69:4 *69:6 4.5 
3 *69:6 *69:8 219.33 
4 *69:8 io_oeb[37] 10.665 
5 *419:io_oeb[15] *69:19 0.135 
*END

*D_NET *70 0.138364
*CONN
*P io_oeb[3] O
*I *419:io_oeb[3] O *D user_proj_example
*CAP
1 io_oeb[3] 0.0426266
2 *419:io_oeb[3] 0.000629918
3 *70:11 0.0426266
4 *70:9 0.00673517
5 *70:7 0.00736509
6 *70:9 *108:9 0.0373565
7 *12:9 *70:9 0
8 *23:9 *70:9 0
9 *34:9 *70:9 0.00102417
*RES
1 *419:io_oeb[3] *70:7 9.225 
2 *70:7 *70:9 103.23 
3 *70:9 *70:11 4.5 
4 *70:11 io_oeb[3] 342.045 
*END

*D_NET *71 0.13749
*CONN
*P io_oeb[4] O
*I *419:io_oeb[4] O *D user_proj_example
*CAP
1 io_oeb[4] 0.0427514
2 *419:io_oeb[4] 0.000488182
3 *71:11 0.0427514
4 *71:9 0.000762977
5 *71:7 0.00125116
6 *71:9 *72:9 0.0028151
7 *71:9 *108:9 0.00122188
8 *71:9 *109:9 0.024345
9 *34:9 *71:9 0.0200024
10 *61:9 *71:9 0.00110079
*RES
1 *419:io_oeb[4] *71:7 8.325 
2 *71:7 *71:9 70.83 
3 *71:9 *71:11 4.5 
4 *71:11 io_oeb[4] 342.945 
*END

*D_NET *72 0.103606
*CONN
*P io_oeb[5] O
*I *419:io_oeb[5] O *D user_proj_example
*CAP
1 io_oeb[5] 0.0427392
2 *419:io_oeb[5] 0.00296948
3 *72:11 0.0427392
4 *72:9 0.00296948
5 *72:9 *110:9 0.000409597
6 *419:io_in[6] *72:9 0.00700462
7 *34:9 *72:9 0.00195957
8 *71:9 *72:9 0.0028151
*RES
1 *419:io_oeb[5] *72:9 46.395 
2 *72:9 *72:11 4.5 
3 *72:11 io_oeb[5] 343.125 
*END

*D_NET *73 0.0878919
*CONN
*P io_oeb[6] O
*I *419:io_oeb[6] O *D user_proj_example
*CAP
1 io_oeb[6] 0.0427315
2 *419:io_oeb[6] 0.0012144
3 *73:11 0.0439459
*RES
1 *419:io_oeb[6] *73:11 18.315 
2 *73:11 io_oeb[6] 343.485 
*END

*D_NET *74 0.0928493
*CONN
*P io_oeb[7] O
*I *419:io_oeb[7] O *D user_proj_example
*CAP
1 io_oeb[7] 0.0426884
2 *419:io_oeb[7] 0.00373625
3 *74:11 0.0464246
*RES
1 *419:io_oeb[7] *74:11 39.195 
2 *74:11 io_oeb[7] 343.125 
*END

*D_NET *77 0.19562
*CONN
*P io_out[0] O
*I *419:io_out[0] O *D user_proj_example
*CAP
1 io_out[0] 0.0391776
2 *419:io_out[0] 0.000449676
3 *77:11 0.0391776
4 *77:9 0.0152247
5 *77:7 0.0156743
6 io_out[0] *138:9 0.000288564
7 io_out[0] *145:9 0.00224321
8 io_out[0] *233:9 0
9 io_out[0] *235:9 0
10 io_out[0] *236:9 0
11 io_out[0] *290:9 0.00678198
12 *39:9 *77:9 0.0766021
*RES
1 *419:io_out[0] *77:7 8.145 
2 *77:7 *77:9 211.23 
3 *77:9 *77:11 4.5 
4 *77:11 io_out[0] 343.125 
*END

*D_NET *88 0.219889
*CONN
*P io_out[1] O
*I *419:io_out[1] O *D user_proj_example
*CAP
1 io_out[1] 0.0427991
2 *419:io_out[1] 0.000492835
3 *88:11 0.0427991
4 *88:9 0.0030216
5 *88:7 0.00351443
6 *39:9 *88:9 0.0637028
7 *50:9 *88:9 0.0635595
*RES
1 *419:io_out[1] *88:7 8.505 
2 *88:7 *88:9 178.83 
3 *88:9 *88:11 4.5 
4 *88:11 io_out[1] 342.765 
*END

*D_NET *99 0.197436
*CONN
*P io_out[2] O
*I *419:io_out[2] O *D user_proj_example
*CAP
1 io_out[2] 0.0321015
2 *419:io_out[2] 0.000884202
3 *99:11 0.0321015
4 *99:9 0.00371426
5 *99:7 0.00459846
6 io_out[2] *227:9 0.0274183
7 *23:9 *99:9 0.0547858
8 *32:9 *99:9 0.0418324
*RES
1 *419:io_out[2] *99:7 11.205 
2 *99:7 *99:9 146.43 
3 *99:9 *99:11 4.5 
4 *99:11 io_out[2] 340.065 
*END

*D_NET *100 0.120298
*CONN
*P io_out[30] O
*I *419:io_out[8] O *D user_proj_example
*CAP
1 io_out[30] 0.000790293
2 *419:io_out[8] 0.0431693
3 *100:19 1.61845e-05
4 *100:8 0.00271146
5 *100:6 0.00192117
6 *100:4 0.0431531
7 *24:9 *100:8 0.015835
8 *25:11 *100:8 0.00179367
9 *62:10 *100:8 0.0109079
*RES
1 *419:io_out[8] *100:4 346.86 
2 *100:4 *100:6 4.5 
3 *100:6 *100:8 49.77 
4 *100:8 io_out[30] 10.845 
5 *419:io_out[8] *100:19 0.135 
*END

*D_NET *101 0.0918932
*CONN
*P io_out[31] O
*I *419:io_out[9] O *D user_proj_example
*CAP
1 io_out[31] 0.00226928
2 *419:io_out[9] 0.0431523
3 *101:19 1.61845e-05
4 *101:4 0.0454054
5 *25:11 io_out[31] 0.00104993
*RES
1 *419:io_out[9] *101:4 346.86 
2 *101:4 io_out[31] 28.395 
3 *419:io_out[9] *101:19 0.135 
*END

*D_NET *102 0.0985217
*CONN
*P io_out[32] O
*I *419:io_out[10] O *D user_proj_example
*CAP
1 io_out[32] 0.00283915
2 *419:io_out[10] 0.0379657
3 *102:19 1.61845e-05
4 *102:4 0.0407887
5 *26:5 *102:4 0.0113081
6 *27:9 io_out[32] 0.000347505
7 *64:10 io_out[32] 0.00525636
*RES
1 *419:io_out[10] *102:4 346.86 
2 *102:4 io_out[32] 38.835 
3 *419:io_out[10] *102:19 0.135 
*END

*D_NET *103 0.133074
*CONN
*P io_out[33] O
*I *419:io_out[11] O *D user_proj_example
*CAP
1 io_out[33] 0.000867305
2 *419:io_out[11] 0.0431261
3 *103:19 1.61845e-05
4 *103:8 0.00142251
5 *103:6 0.000555204
6 *103:4 0.0431099
7 *27:9 *103:8 0.0150774
8 *64:10 *103:8 0.00133487
9 *65:8 *103:8 0.0200936
10 *66:8 *103:8 0.00747109
*RES
1 *419:io_out[11] *103:4 346.5 
2 *103:4 *103:6 4.5 
3 *103:6 *103:8 60.21 
4 *103:8 io_out[33] 11.205 
5 *419:io_out[11] *103:19 0.135 
*END

*D_NET *104 0.135197
*CONN
*P io_out[34] O
*I *419:io_out[12] O *D user_proj_example
*CAP
1 io_out[34] 0.000751787
2 *419:io_out[12] 0.0432416
3 *104:19 1.61845e-05
4 *104:8 0.00693
5 *104:6 0.00617821
6 *104:4 0.0432254
7 *104:8 *107:8 0.00120529
8 *28:9 *104:8 0.0298883
9 *68:8 *104:8 0.00375996
*RES
1 *419:io_out[12] *104:4 347.04 
2 *104:4 *104:6 4.5 
3 *104:6 *104:8 96.93 
4 *104:8 io_out[34] 10.665 
5 *419:io_out[12] *104:19 0.135 
*END
