*SPEF "ieee 1481-1999"
*DESIGN "wishbone_register"
*DATE "11:11:11 Fri 11 11, 1111"
*VENDOR "OpenRCX"
*PROGRAM "Parallel Extraction"
*VERSION "1.0"
*DESIGN_FLOW "NAME_SCOPE LOCAL" "PIN_CAP NONE"
*DIVIDER /
*DELIMITER :
*BUS_DELIMITER []
*T_UNIT 1 NS
*C_UNIT 1 PF
*R_UNIT 1 OHM
*L_UNIT 1 HENRY

*NAME_MAP
*1 reg_q_o
*4 wb_clk_i
*5 wb_rst_i
*6 wbs_ack_o
*7 wbs_adr_i[0]
*8 wbs_adr_i[10]
*9 wbs_adr_i[11]
*10 wbs_adr_i[12]
*11 wbs_adr_i[13]
*12 wbs_adr_i[14]
*13 wbs_adr_i[15]
*14 wbs_adr_i[16]
*15 wbs_adr_i[17]
*16 wbs_adr_i[18]
*17 wbs_adr_i[19]
*18 wbs_adr_i[1]
*19 wbs_adr_i[20]
*20 wbs_adr_i[21]
*21 wbs_adr_i[22]
*22 wbs_adr_i[23]
*23 wbs_adr_i[24]
*24 wbs_adr_i[25]
*25 wbs_adr_i[26]
*26 wbs_adr_i[27]
*27 wbs_adr_i[28]
*28 wbs_adr_i[29]
*29 wbs_adr_i[2]
*30 wbs_adr_i[30]
*31 wbs_adr_i[31]
*32 wbs_adr_i[3]
*33 wbs_adr_i[4]
*34 wbs_adr_i[5]
*35 wbs_adr_i[6]
*36 wbs_adr_i[7]
*37 wbs_adr_i[8]
*38 wbs_adr_i[9]
*39 wbs_cyc_i
*40 wbs_dat_i[0]
*41 wbs_dat_i[10]
*42 wbs_dat_i[11]
*43 wbs_dat_i[12]
*44 wbs_dat_i[13]
*45 wbs_dat_i[14]
*46 wbs_dat_i[15]
*47 wbs_dat_i[16]
*48 wbs_dat_i[17]
*49 wbs_dat_i[18]
*50 wbs_dat_i[19]
*51 wbs_dat_i[1]
*52 wbs_dat_i[20]
*53 wbs_dat_i[21]
*54 wbs_dat_i[22]
*55 wbs_dat_i[23]
*56 wbs_dat_i[24]
*57 wbs_dat_i[25]
*58 wbs_dat_i[26]
*59 wbs_dat_i[27]
*60 wbs_dat_i[28]
*61 wbs_dat_i[29]
*62 wbs_dat_i[2]
*63 wbs_dat_i[30]
*64 wbs_dat_i[31]
*65 wbs_dat_i[3]
*66 wbs_dat_i[4]
*67 wbs_dat_i[5]
*68 wbs_dat_i[6]
*69 wbs_dat_i[7]
*70 wbs_dat_i[8]
*71 wbs_dat_i[9]
*72 wbs_dat_o[0]
*73 net49
*74 net50
*75 net51
*76 net52
*77 net53
*78 net54
*79 net55
*80 net56
*81 net57
*82 net58
*83 net40
*84 net59
*85 net60
*86 net61
*87 net62
*88 net63
*89 net64
*90 net65
*91 net66
*92 net67
*93 net68
*94 net41
*95 net69
*96 net70
*97 net42
*98 net43
*99 net44
*100 net45
*101 net46
*102 net47
*103 net48
*104 wbs_sel_i[0]
*105 wbs_sel_i[1]
*106 wbs_sel_i[2]
*107 wbs_sel_i[3]
*108 wbs_stb_i
*109 wbs_we_i
*110 _00_
*111 _01_
*112 _02_
*113 _03_
*114 _04_
*115 _05_
*116 _06_
*117 _07_
*118 _08_
*119 _09_
*120 _10_
*121 _11_
*122 _12_
*123 _13_
*124 _14_
*125 _15_
*126 _16_
*127 _17_
*128 _18_
*129 _19_
*130 _20_
*131 _21_
*132 _22_
*133 clknet_0_wb_clk_i
*134 clknet_1_0__leaf_wb_clk_i
*135 clknet_1_1__leaf_wb_clk_i
*136 net1
*137 net10
*138 net11
*139 net12
*140 net13
*141 net14
*142 net15
*143 net16
*144 net17
*145 net18
*146 net19
*147 net2
*148 net20
*149 net21
*150 net22
*151 net23
*152 net24
*153 net25
*154 net26
*155 net27
*156 net28
*157 net29
*158 net3
*159 net30
*160 net31
*161 net32
*162 net33
*163 net34
*164 net35
*165 net36
*166 net37
*167 net38
*168 net39
*169 net4
*170 net5
*171 net6
*172 net7
*173 net71
*174 net8
*175 net9
*176 ANTENNA_clkbuf_0_wb_clk_i_I
*177 ANTENNA_input10_I
*178 ANTENNA_input11_I
*179 ANTENNA_input12_I
*180 ANTENNA_input13_I
*181 ANTENNA_input14_I
*182 ANTENNA_input15_I
*183 ANTENNA_input16_I
*184 ANTENNA_input17_I
*185 ANTENNA_input18_I
*186 ANTENNA_input19_I
*187 ANTENNA_input1_I
*188 ANTENNA_input20_I
*189 ANTENNA_input21_I
*190 ANTENNA_input22_I
*191 ANTENNA_input23_I
*192 ANTENNA_input24_I
*193 ANTENNA_input25_I
*194 ANTENNA_input26_I
*195 ANTENNA_input27_I
*196 ANTENNA_input28_I
*197 ANTENNA_input29_I
*198 ANTENNA_input2_I
*199 ANTENNA_input30_I
*200 ANTENNA_input31_I
*201 ANTENNA_input32_I
*202 ANTENNA_input33_I
*203 ANTENNA_input34_I
*204 ANTENNA_input35_I
*205 ANTENNA_input36_I
*206 ANTENNA_input3_I
*207 ANTENNA_input4_I
*208 ANTENNA_input5_I
*209 ANTENNA_input6_I
*210 ANTENNA_input7_I
*211 ANTENNA_input8_I
*212 ANTENNA_input9_I
*213 FILLER_0_0_134
*214 FILLER_0_0_150
*215 FILLER_0_0_2
*216 FILLER_0_0_36
*217 FILLER_0_0_70
*218 FILLER_0_0_72
*219 FILLER_0_0_97
*220 FILLER_0_0_99
*221 FILLER_0_10_102
*222 FILLER_0_10_104
*223 FILLER_0_10_107
*224 FILLER_0_10_12
*225 FILLER_0_10_139
*226 FILLER_0_10_147
*227 FILLER_0_10_151
*228 FILLER_0_10_28
*229 FILLER_0_10_32
*230 FILLER_0_10_37
*231 FILLER_0_10_8
*232 FILLER_0_10_94
*233 FILLER_0_11_114
*234 FILLER_0_11_130
*235 FILLER_0_11_138
*236 FILLER_0_11_142
*237 FILLER_0_11_150
*238 FILLER_0_11_22
*239 FILLER_0_11_30
*240 FILLER_0_11_34
*241 FILLER_0_11_36
*242 FILLER_0_11_6
*243 FILLER_0_11_72
*244 FILLER_0_11_82
*245 FILLER_0_12_101
*246 FILLER_0_12_107
*247 FILLER_0_12_139
*248 FILLER_0_12_147
*249 FILLER_0_12_151
*250 FILLER_0_12_2
*251 FILLER_0_12_34
*252 FILLER_0_12_37
*253 FILLER_0_13_136
*254 FILLER_0_13_142
*255 FILLER_0_13_150
*256 FILLER_0_13_6
*257 FILLER_0_13_72
*258 FILLER_0_14_107
*259 FILLER_0_14_139
*260 FILLER_0_14_147
*261 FILLER_0_14_151
*262 FILLER_0_14_22
*263 FILLER_0_14_30
*264 FILLER_0_14_34
*265 FILLER_0_14_37
*266 FILLER_0_14_6
*267 FILLER_0_14_89
*268 FILLER_0_15_117
*269 FILLER_0_15_133
*270 FILLER_0_15_137
*271 FILLER_0_15_139
*272 FILLER_0_15_14
*273 FILLER_0_15_142
*274 FILLER_0_15_18
*275 FILLER_0_15_23
*276 FILLER_0_15_31
*277 FILLER_0_15_35
*278 FILLER_0_15_41
*279 FILLER_0_15_47
*280 FILLER_0_15_51
*281 FILLER_0_15_55
*282 FILLER_0_15_59
*283 FILLER_0_15_6
*284 FILLER_0_15_65
*285 FILLER_0_15_69
*286 FILLER_0_15_72
*287 FILLER_0_15_80
*288 FILLER_0_15_82
*289 FILLER_0_15_85
*290 FILLER_0_16_101
*291 FILLER_0_16_108
*292 FILLER_0_16_113
*293 FILLER_0_16_119
*294 FILLER_0_16_125
*295 FILLER_0_16_131
*296 FILLER_0_16_150
*297 FILLER_0_16_36
*298 FILLER_0_16_54
*299 FILLER_0_16_61
*300 FILLER_0_16_63
*301 FILLER_0_16_70
*302 FILLER_0_16_72
*303 FILLER_0_16_77
*304 FILLER_0_16_83
*305 FILLER_0_16_95
*306 FILLER_0_1_107
*307 FILLER_0_1_110
*308 FILLER_0_1_116
*309 FILLER_0_1_122
*310 FILLER_0_1_124
*311 FILLER_0_1_133
*312 FILLER_0_1_142
*313 FILLER_0_1_144
*314 FILLER_0_1_151
*315 FILLER_0_1_18
*316 FILLER_0_1_24
*317 FILLER_0_1_26
*318 FILLER_0_1_29
*319 FILLER_0_1_33
*320 FILLER_0_1_43
*321 FILLER_0_1_47
*322 FILLER_0_1_49
*323 FILLER_0_1_52
*324 FILLER_0_1_58
*325 FILLER_0_1_62
*326 FILLER_0_1_66
*327 FILLER_0_1_72
*328 FILLER_0_1_76
*329 FILLER_0_1_79
*330 FILLER_0_1_85
*331 FILLER_0_1_91
*332 FILLER_0_2_104
*333 FILLER_0_2_107
*334 FILLER_0_2_12
*335 FILLER_0_2_123
*336 FILLER_0_2_125
*337 FILLER_0_2_128
*338 FILLER_0_2_138
*339 FILLER_0_2_142
*340 FILLER_0_2_18
*341 FILLER_0_2_22
*342 FILLER_0_2_30
*343 FILLER_0_2_34
*344 FILLER_0_2_37
*345 FILLER_0_2_69
*346 FILLER_0_2_71
*347 FILLER_0_2_88
*348 FILLER_0_3_10
*349 FILLER_0_3_120
*350 FILLER_0_3_136
*351 FILLER_0_3_14
*352 FILLER_0_3_142
*353 FILLER_0_3_146
*354 FILLER_0_3_46
*355 FILLER_0_3_6
*356 FILLER_0_3_68
*357 FILLER_0_3_72
*358 FILLER_0_3_76
*359 FILLER_0_4_104
*360 FILLER_0_4_107
*361 FILLER_0_4_139
*362 FILLER_0_4_147
*363 FILLER_0_4_151
*364 FILLER_0_4_2
*365 FILLER_0_4_22
*366 FILLER_0_4_30
*367 FILLER_0_4_34
*368 FILLER_0_4_37
*369 FILLER_0_4_53
*370 FILLER_0_4_57
*371 FILLER_0_4_59
*372 FILLER_0_4_6
*373 FILLER_0_4_97
*374 FILLER_0_5_118
*375 FILLER_0_5_134
*376 FILLER_0_5_138
*377 FILLER_0_5_142
*378 FILLER_0_5_148
*379 FILLER_0_5_2
*380 FILLER_0_5_38
*381 FILLER_0_5_46
*382 FILLER_0_5_50
*383 FILLER_0_5_6
*384 FILLER_0_5_72
*385 FILLER_0_5_74
*386 FILLER_0_6_107
*387 FILLER_0_6_12
*388 FILLER_0_6_139
*389 FILLER_0_6_28
*390 FILLER_0_6_32
*391 FILLER_0_6_34
*392 FILLER_0_6_37
*393 FILLER_0_6_41
*394 FILLER_0_6_43
*395 FILLER_0_6_94
*396 FILLER_0_6_98
*397 FILLER_0_7_121
*398 FILLER_0_7_137
*399 FILLER_0_7_139
*400 FILLER_0_7_142
*401 FILLER_0_7_2
*402 FILLER_0_7_34
*403 FILLER_0_8_102
*404 FILLER_0_8_104
*405 FILLER_0_8_112
*406 FILLER_0_8_144
*407 FILLER_0_8_2
*408 FILLER_0_8_34
*409 FILLER_0_8_37
*410 FILLER_0_9_103
*411 FILLER_0_9_135
*412 FILLER_0_9_139
*413 FILLER_0_9_142
*414 FILLER_0_9_150
*415 FILLER_0_9_22
*416 FILLER_0_9_30
*417 FILLER_0_9_34
*418 FILLER_0_9_6
*419 FILLER_0_9_72
*420 FILLER_0_9_74
*421 FILLER_0_9_80
*422 FILLER_0_9_82
*423 PHY_EDGE_ROW_0_Left_17
*424 PHY_EDGE_ROW_0_Right_0
*425 PHY_EDGE_ROW_10_Left_27
*426 PHY_EDGE_ROW_10_Right_10
*427 PHY_EDGE_ROW_11_Left_28
*428 PHY_EDGE_ROW_11_Right_11
*429 PHY_EDGE_ROW_12_Left_29
*430 PHY_EDGE_ROW_12_Right_12
*431 PHY_EDGE_ROW_13_Left_30
*432 PHY_EDGE_ROW_13_Right_13
*433 PHY_EDGE_ROW_14_Left_31
*434 PHY_EDGE_ROW_14_Right_14
*435 PHY_EDGE_ROW_15_Left_32
*436 PHY_EDGE_ROW_15_Right_15
*437 PHY_EDGE_ROW_16_Left_33
*438 PHY_EDGE_ROW_16_Right_16
*439 PHY_EDGE_ROW_1_Left_18
*440 PHY_EDGE_ROW_1_Right_1
*441 PHY_EDGE_ROW_2_Left_19
*442 PHY_EDGE_ROW_2_Right_2
*443 PHY_EDGE_ROW_3_Left_20
*444 PHY_EDGE_ROW_3_Right_3
*445 PHY_EDGE_ROW_4_Left_21
*446 PHY_EDGE_ROW_4_Right_4
*447 PHY_EDGE_ROW_5_Left_22
*448 PHY_EDGE_ROW_5_Right_5
*449 PHY_EDGE_ROW_6_Left_23
*450 PHY_EDGE_ROW_6_Right_6
*451 PHY_EDGE_ROW_7_Left_24
*452 PHY_EDGE_ROW_7_Right_7
*453 PHY_EDGE_ROW_8_Left_25
*454 PHY_EDGE_ROW_8_Right_8
*455 PHY_EDGE_ROW_9_Left_26
*456 PHY_EDGE_ROW_9_Right_9
*457 TAP_TAPCELL_ROW_0_34
*458 TAP_TAPCELL_ROW_0_35
*459 TAP_TAPCELL_ROW_0_36
*460 TAP_TAPCELL_ROW_0_37
*461 TAP_TAPCELL_ROW_10_56
*462 TAP_TAPCELL_ROW_10_57
*463 TAP_TAPCELL_ROW_11_58
*464 TAP_TAPCELL_ROW_11_59
*465 TAP_TAPCELL_ROW_12_60
*466 TAP_TAPCELL_ROW_12_61
*467 TAP_TAPCELL_ROW_13_62
*468 TAP_TAPCELL_ROW_13_63
*469 TAP_TAPCELL_ROW_14_64
*470 TAP_TAPCELL_ROW_14_65
*471 TAP_TAPCELL_ROW_15_66
*472 TAP_TAPCELL_ROW_15_67
*473 TAP_TAPCELL_ROW_16_68
*474 TAP_TAPCELL_ROW_16_69
*475 TAP_TAPCELL_ROW_16_70
*476 TAP_TAPCELL_ROW_16_71
*477 TAP_TAPCELL_ROW_1_38
*478 TAP_TAPCELL_ROW_1_39
*479 TAP_TAPCELL_ROW_2_40
*480 TAP_TAPCELL_ROW_2_41
*481 TAP_TAPCELL_ROW_3_42
*482 TAP_TAPCELL_ROW_3_43
*483 TAP_TAPCELL_ROW_4_44
*484 TAP_TAPCELL_ROW_4_45
*485 TAP_TAPCELL_ROW_5_46
*486 TAP_TAPCELL_ROW_5_47
*487 TAP_TAPCELL_ROW_6_48
*488 TAP_TAPCELL_ROW_6_49
*489 TAP_TAPCELL_ROW_7_50
*490 TAP_TAPCELL_ROW_7_51
*491 TAP_TAPCELL_ROW_8_52
*492 TAP_TAPCELL_ROW_8_53
*493 TAP_TAPCELL_ROW_9_54
*494 TAP_TAPCELL_ROW_9_55
*495 _24_
*496 _25_
*497 _26_
*498 _27_
*499 _28_
*500 _29_
*501 _30_
*502 _31_
*503 _32_
*504 _33_
*505 _34_
*506 _35_
*507 _36_
*508 _37_
*509 _38_
*510 _39_
*511 _40_
*512 _41_
*513 _42_
*514 _43_
*515 _44_
*516 _45_
*517 _46_
*518 _47_
*519 _48_
*520 _48__71
*521 _49_
*522 clkbuf_0_wb_clk_i
*523 clkbuf_1_0__f_wb_clk_i
*524 clkbuf_1_1__f_wb_clk_i
*525 input1
*526 input10
*527 input11
*528 input12
*529 input13
*530 input14
*531 input15
*532 input16
*533 input17
*534 input18
*535 input19
*536 input2
*537 input20
*538 input21
*539 input22
*540 input23
*541 input24
*542 input25
*543 input26
*544 input27
*545 input28
*546 input29
*547 input3
*548 input30
*549 input31
*550 input32
*551 input33
*552 input34
*553 input35
*554 input36
*555 input4
*556 input5
*557 input6
*558 input7
*559 input8
*560 input9
*561 output37
*562 output38
*563 output39
*564 wishbone_register_40
*565 wishbone_register_41
*566 wishbone_register_42
*567 wishbone_register_43
*568 wishbone_register_44
*569 wishbone_register_45
*570 wishbone_register_46
*571 wishbone_register_47
*572 wishbone_register_48
*573 wishbone_register_49
*574 wishbone_register_50
*575 wishbone_register_51
*576 wishbone_register_52
*577 wishbone_register_53
*578 wishbone_register_54
*579 wishbone_register_55
*580 wishbone_register_56
*581 wishbone_register_57
*582 wishbone_register_58
*583 wishbone_register_59
*584 wishbone_register_60
*585 wishbone_register_61
*586 wishbone_register_62
*587 wishbone_register_63
*588 wishbone_register_64
*589 wishbone_register_65
*590 wishbone_register_66
*591 wishbone_register_67
*592 wishbone_register_68
*593 wishbone_register_69
*594 wishbone_register_70

*PORTS
reg_q_o O
wb_clk_i I
wb_rst_i I
wbs_ack_o O
wbs_adr_i[0] I
wbs_adr_i[10] I
wbs_adr_i[11] I
wbs_adr_i[12] I
wbs_adr_i[13] I
wbs_adr_i[14] I
wbs_adr_i[15] I
wbs_adr_i[16] I
wbs_adr_i[17] I
wbs_adr_i[18] I
wbs_adr_i[19] I
wbs_adr_i[1] I
wbs_adr_i[20] I
wbs_adr_i[21] I
wbs_adr_i[22] I
wbs_adr_i[23] I
wbs_adr_i[24] I
wbs_adr_i[25] I
wbs_adr_i[26] I
wbs_adr_i[27] I
wbs_adr_i[28] I
wbs_adr_i[29] I
wbs_adr_i[2] I
wbs_adr_i[30] I
wbs_adr_i[31] I
wbs_adr_i[3] I
wbs_adr_i[4] I
wbs_adr_i[5] I
wbs_adr_i[6] I
wbs_adr_i[7] I
wbs_adr_i[8] I
wbs_adr_i[9] I
wbs_cyc_i I
wbs_dat_i[0] I
wbs_dat_i[10] I
wbs_dat_i[11] I
wbs_dat_i[12] I
wbs_dat_i[13] I
wbs_dat_i[14] I
wbs_dat_i[15] I
wbs_dat_i[16] I
wbs_dat_i[17] I
wbs_dat_i[18] I
wbs_dat_i[19] I
wbs_dat_i[1] I
wbs_dat_i[20] I
wbs_dat_i[21] I
wbs_dat_i[22] I
wbs_dat_i[23] I
wbs_dat_i[24] I
wbs_dat_i[25] I
wbs_dat_i[26] I
wbs_dat_i[27] I
wbs_dat_i[28] I
wbs_dat_i[29] I
wbs_dat_i[2] I
wbs_dat_i[30] I
wbs_dat_i[31] I
wbs_dat_i[3] I
wbs_dat_i[4] I
wbs_dat_i[5] I
wbs_dat_i[6] I
wbs_dat_i[7] I
wbs_dat_i[8] I
wbs_dat_i[9] I
wbs_dat_o[0] O
wbs_dat_o[10] O
wbs_dat_o[11] O
wbs_dat_o[12] O
wbs_dat_o[13] O
wbs_dat_o[14] O
wbs_dat_o[15] O
wbs_dat_o[16] O
wbs_dat_o[17] O
wbs_dat_o[18] O
wbs_dat_o[19] O
wbs_dat_o[1] O
wbs_dat_o[20] O
wbs_dat_o[21] O
wbs_dat_o[22] O
wbs_dat_o[23] O
wbs_dat_o[24] O
wbs_dat_o[25] O
wbs_dat_o[26] O
wbs_dat_o[27] O
wbs_dat_o[28] O
wbs_dat_o[29] O
wbs_dat_o[2] O
wbs_dat_o[30] O
wbs_dat_o[31] O
wbs_dat_o[3] O
wbs_dat_o[4] O
wbs_dat_o[5] O
wbs_dat_o[6] O
wbs_dat_o[7] O
wbs_dat_o[8] O
wbs_dat_o[9] O
wbs_sel_i[0] I
wbs_sel_i[1] I
wbs_sel_i[2] I
wbs_sel_i[3] I
wbs_stb_i I
wbs_we_i I

*D_NET *1 0.00129364
*CONN
*P reg_q_o O
*I *561:Z O *D gf180mcu_fd_sc_mcu7t5v0__clkbuf_4
*CAP
1 reg_q_o 0.000599905
2 *561:Z 0.000599905
3 reg_q_o wbs_dat_o[18] 9.38262e-05
*RES
1 *561:Z reg_q_o 8.794 
*END

*D_NET *4 0.00296261
*CONN
*P wb_clk_i I
*I *176:I I *D gf180mcu_fd_sc_mcu7t5v0__antenna
*I *522:I I *D gf180mcu_fd_sc_mcu7t5v0__clkbuf_16
*CAP
1 wb_clk_i 0.00111175
2 *176:I 0
3 *522:I 0.000334081
4 *4:11 0.00144583
5 *522:I *521:D 1.8377e-05
6 *4:11 wbs_dat_o[5] 5.25699e-05
7 *4:11 *519:D 0
8 *4:11 *521:D 0
*RES
1 wb_clk_i *4:11 11.834 
2 *4:11 *522:I 15.248 
3 *4:11 *176:I 4.5 
*END

*D_NET *5 0.00183994
*CONN
*P wb_rst_i I
*I *525:I I *D gf180mcu_fd_sc_mcu7t5v0__clkbuf_1
*I *187:I I *D gf180mcu_fd_sc_mcu7t5v0__antenna
*CAP
1 wb_rst_i 0.000459874
2 *525:I 5.86444e-05
3 *187:I 0.000128656
4 *5:5 0.000647175
5 *187:I wbs_dat_o[21] 2.22657e-05
6 *187:I wbs_dat_o[26] 7.54445e-06
7 *187:I *136:14 2.98535e-05
8 *5:5 wbs_dat_o[21] 0.000343229
9 *5:5 wbs_dat_o[26] 0.000142698
*RES
1 wb_rst_i *5:5 4.446 
2 *5:5 *187:I 5.336 
3 *5:5 *525:I 4.88 
*END

*D_NET *6 0.00187756
*CONN
*P wbs_ack_o O
*I *562:Z O *D gf180mcu_fd_sc_mcu7t5v0__buf_3
*CAP
1 wbs_ack_o 0.000804999
2 *562:Z 0.000804999
3 wbs_ack_o wbs_dat_o[0] 0.00013515
4 wbs_ack_o wbs_dat_o[27] 0.000132416
*RES
1 *562:Z wbs_ack_o 19.39 
*END

*D_NET *7 0.0028326
*CONN
*P wbs_adr_i[0] I
*I *198:I I *D gf180mcu_fd_sc_mcu7t5v0__antenna
*I *536:I I *D gf180mcu_fd_sc_mcu7t5v0__clkbuf_1
*CAP
1 wbs_adr_i[0] 0.000922447
2 *198:I 0.000176611
3 *536:I 0
4 *7:9 0.00109906
5 *198:I *193:I 0
6 *198:I *500:A2 5.40519e-05
7 *7:9 *180:I 6.88434e-05
8 *7:9 *193:I 2.57058e-06
9 *7:9 *500:A2 3.07734e-05
10 *7:9 *29:13 0.000478242
*RES
1 wbs_adr_i[0] *7:9 7.03 
2 *7:9 *536:I 4.5 
3 *7:9 *198:I 5.716 
*END

*D_NET *8 0.0040217
*CONN
*P wbs_adr_i[10] I
*I *206:I I *D gf180mcu_fd_sc_mcu7t5v0__antenna
*I *547:I I *D gf180mcu_fd_sc_mcu7t5v0__clkbuf_1
*CAP
1 wbs_adr_i[10] 0.00110344
2 *206:I 0.000288169
3 *547:I 0
4 *8:13 0.00139161
5 *206:I *199:I 1.51867e-05
6 *206:I *208:I 0.00011703
7 *206:I *503:A2 0.000296246
8 *206:I *504:A2 1.20079e-05
9 *206:I *505:A1 2.68517e-05
10 *8:13 wbs_dat_o[6] 7.68711e-05
11 *8:13 *504:A2 0.000493324
12 *8:13 *505:A1 5.67536e-05
13 *8:13 *559:I 2.22758e-05
14 *8:13 *10:11 0.000121935
*RES
1 wbs_adr_i[10] *8:13 17.246 
2 *8:13 *547:I 4.5 
3 *8:13 *206:I 7.16 
*END

*D_NET *9 0.00233158
*CONN
*P wbs_adr_i[11] I
*I *555:I I *D gf180mcu_fd_sc_mcu7t5v0__clkbuf_1
*I *207:I I *D gf180mcu_fd_sc_mcu7t5v0__antenna
*CAP
1 wbs_adr_i[11] 0.000391301
2 *555:I 0.000132476
3 *207:I 0.00021568
4 *9:9 0.000739456
5 *207:I *200:I 0.000134691
6 *207:I *503:A1 0.000140728
7 *207:I *36:15 4.82777e-05
8 *555:I *503:A1 0.000152443
9 *555:I *505:A2 8.55327e-05
10 *555:I *33:5 7.38898e-05
11 *9:9 *33:5 0.00011814
12 *9:9 *36:15 9.89674e-05
*RES
1 wbs_adr_i[11] *9:9 3.534 
2 *9:9 *207:I 6.4 
3 *9:9 *555:I 5.716 
*END

*D_NET *10 0.0033589
*CONN
*P wbs_adr_i[12] I
*I *208:I I *D gf180mcu_fd_sc_mcu7t5v0__antenna
*I *556:I I *D gf180mcu_fd_sc_mcu7t5v0__clkbuf_1
*CAP
1 wbs_adr_i[12] 0.000821953
2 *208:I 0.000156053
3 *556:I 1.52433e-05
4 *10:11 0.000993249
5 *208:I wbs_dat_o[28] 4.29636e-06
6 *208:I wbs_dat_o[29] 0.000130876
7 *208:I *199:I 0.000199473
8 *208:I *503:A4 0.000191702
9 *556:I *209:I 8.55327e-05
10 *10:11 wbs_dat_o[28] 0.00013127
11 *10:11 wbs_dat_o[29] 0.000258977
12 *10:11 *209:I 0
13 *10:11 *11:9 0.000131308
14 *206:I *208:I 0.00011703
15 *8:13 *10:11 0.000121935
*RES
1 wbs_adr_i[12] *10:11 11.834 
2 *10:11 *556:I 9.228 
3 *10:11 *208:I 10.976 
*END

*D_NET *11 0.00334463
*CONN
*P wbs_adr_i[13] I
*I *209:I I *D gf180mcu_fd_sc_mcu7t5v0__antenna
*I *557:I I *D gf180mcu_fd_sc_mcu7t5v0__clkbuf_1
*CAP
1 wbs_adr_i[13] 0.000644236
2 *209:I 0.000237848
3 *557:I 0
4 *11:9 0.000882084
5 *209:I wbs_dat_o[28] 0.000319977
6 *209:I *199:I 0.000429933
7 *209:I *503:A4 0.000329189
8 *11:9 *199:I 0.000165876
9 *11:9 *35:7 0.00011865
10 *556:I *209:I 8.55327e-05
11 *10:11 *209:I 0
12 *10:11 *11:9 0.000131308
*RES
1 wbs_adr_i[13] *11:9 5.51 
2 *11:9 *557:I 4.5 
3 *11:9 *209:I 7.692 
*END

*D_NET *12 0.00183706
*CONN
*P wbs_adr_i[14] I
*I *210:I I *D gf180mcu_fd_sc_mcu7t5v0__antenna
*I *558:I I *D gf180mcu_fd_sc_mcu7t5v0__clkbuf_1
*CAP
1 wbs_adr_i[14] 0.000429335
2 *210:I 0.000212973
3 *558:I 0
4 *12:5 0.000642308
5 *210:I *179:I 9.71788e-05
6 *210:I *211:I 7.71746e-05
7 *210:I *17:5 1.33911e-06
8 *12:5 *211:I 0.000121499
9 *12:5 *505:A2 3.79283e-05
10 *12:5 *13:5 0.000106061
11 *12:5 *17:5 0.000111267
*RES
1 wbs_adr_i[14] *12:5 3.838 
2 *12:5 *558:I 4.5 
3 *12:5 *210:I 6.324 
*END

*D_NET *13 0.00263017
*CONN
*P wbs_adr_i[15] I
*I *211:I I *D gf180mcu_fd_sc_mcu7t5v0__antenna
*I *559:I I *D gf180mcu_fd_sc_mcu7t5v0__clkbuf_1
*CAP
1 wbs_adr_i[15] 0.000370302
2 *211:I 0.000382233
3 *559:I 6.052e-05
4 *13:5 0.000813055
5 *211:I wbs_dat_o[6] 0.000201947
6 *211:I *505:A1 0.000283785
7 *559:I *505:A1 7.50749e-05
8 *559:I *35:7 8.84958e-06
9 *13:5 *35:7 0.000107394
10 *210:I *211:I 7.71746e-05
11 *8:13 *559:I 2.22758e-05
12 *12:5 *211:I 0.000121499
13 *12:5 *13:5 0.000106061
*RES
1 wbs_adr_i[15] *13:5 3.23 
2 *13:5 *559:I 5.184 
3 *13:5 *211:I 7.692 
*END

*D_NET *14 0.00166679
*CONN
*P wbs_adr_i[16] I
*I *212:I I *D gf180mcu_fd_sc_mcu7t5v0__antenna
*I *560:I I *D gf180mcu_fd_sc_mcu7t5v0__clkbuf_1
*CAP
1 wbs_adr_i[16] 0.000459061
2 *212:I 0.000114451
3 *560:I 0
4 *14:5 0.000573512
5 *212:I *179:I 9.66596e-06
6 *212:I *505:A4 0.000169363
7 *212:I *506:A1 4.75083e-05
8 *14:5 *505:A4 3.73627e-05
9 *14:5 *506:A1 2.76081e-05
10 *14:5 *16:5 0.000116244
11 *14:5 *17:5 0.000112015
*RES
1 wbs_adr_i[16] *14:5 3.838 
2 *14:5 *560:I 4.5 
3 *14:5 *212:I 5.716 
*END

*D_NET *15 0.00221471
*CONN
*P wbs_adr_i[17] I
*I *177:I I *D gf180mcu_fd_sc_mcu7t5v0__antenna
*I *526:I I *D gf180mcu_fd_sc_mcu7t5v0__clkbuf_1
*CAP
1 wbs_adr_i[17] 0.000387291
2 *177:I 0.000214372
3 *526:I 0.000116844
4 *15:5 0.000718507
5 *177:I *505:A3 0.000219177
6 *177:I *506:A3 6.63909e-05
7 *177:I *531:I 0.000111252
8 *526:I *201:I 0.000127309
9 *526:I *505:A3 9.67609e-05
10 *15:5 *20:9 8.35439e-05
11 *15:5 *37:9 7.32616e-05
*RES
1 wbs_adr_i[17] *15:5 3.23 
2 *15:5 *526:I 5.716 
3 *15:5 *177:I 6.476 
*END

*D_NET *16 0.00174638
*CONN
*P wbs_adr_i[18] I
*I *527:I I *D gf180mcu_fd_sc_mcu7t5v0__clkbuf_1
*I *178:I I *D gf180mcu_fd_sc_mcu7t5v0__antenna
*CAP
1 wbs_adr_i[18] 0.000559857
2 *527:I 8.60678e-05
3 *178:I 0
4 *16:5 0.000645925
5 *527:I *504:A4 1.50588e-05
6 *527:I *505:A4 5.14116e-06
7 *16:5 *504:A4 1.96827e-05
8 *16:5 *505:A4 8.16677e-05
9 *16:5 *550:I 4.18921e-05
10 *16:5 *37:9 0.000174847
11 *14:5 *16:5 0.000116244
*RES
1 wbs_adr_i[18] *16:5 4.75 
2 *16:5 *178:I 4.5 
3 *16:5 *527:I 5.108 
*END

*D_NET *17 0.00177546
*CONN
*P wbs_adr_i[19] I
*I *179:I I *D gf180mcu_fd_sc_mcu7t5v0__antenna
*I *528:I I *D gf180mcu_fd_sc_mcu7t5v0__buf_1
*CAP
1 wbs_adr_i[19] 0.000470059
2 *179:I 0.000152807
3 *528:I 0
4 *17:5 0.000622866
5 *179:I *506:A1 0.000121492
6 *17:5 *505:A2 1.19401e-05
7 *17:5 *506:A1 6.48288e-05
8 *210:I *179:I 9.71788e-05
9 *210:I *17:5 1.33911e-06
10 *212:I *179:I 9.66596e-06
11 *12:5 *17:5 0.000111267
12 *14:5 *17:5 0.000112015
*RES
1 wbs_adr_i[19] *17:5 3.838 
2 *17:5 *528:I 4.5 
3 *17:5 *179:I 6.02 
*END

*D_NET *18 0.00264559
*CONN
*P wbs_adr_i[1] I
*I *529:I I *D gf180mcu_fd_sc_mcu7t5v0__clkbuf_1
*I *180:I I *D gf180mcu_fd_sc_mcu7t5v0__antenna
*CAP
1 wbs_adr_i[1] 0.000524381
2 *529:I 2.88537e-05
3 *180:I 0.000153288
4 *18:9 0.000706522
5 *180:I *193:I 0.000176188
6 *180:I *29:13 9.88736e-06
7 *18:9 *193:I 6.78619e-05
8 *18:9 *495:A2 0.000201948
9 *18:9 *542:I 0.000257176
10 *18:9 *29:13 0.000356815
11 *18:9 *30:9 9.38262e-05
12 *7:9 *180:I 6.88434e-05
*RES
1 wbs_adr_i[1] *18:9 5.51 
2 *18:9 *180:I 5.792 
3 *18:9 *529:I 4.728 
*END

*D_NET *19 0.00209597
*CONN
*P wbs_adr_i[20] I
*I *181:I I *D gf180mcu_fd_sc_mcu7t5v0__antenna
*I *530:I I *D gf180mcu_fd_sc_mcu7t5v0__clkbuf_1
*CAP
1 wbs_adr_i[20] 0.000479114
2 *181:I 0.000129893
3 *530:I 0
4 *19:9 0.000609007
5 *181:I *182:I 5.09899e-05
6 *181:I *506:A4 0.0003967
7 *19:9 *182:I 6.61161e-05
8 *19:9 *506:A4 3.43567e-05
9 *19:9 *20:9 0.000318222
10 *19:9 *38:9 1.15676e-05
*RES
1 wbs_adr_i[20] *19:9 4.294 
2 *19:9 *530:I 4.5 
3 *19:9 *181:I 5.868 
*END

*D_NET *20 0.00242378
*CONN
*P wbs_adr_i[21] I
*I *182:I I *D gf180mcu_fd_sc_mcu7t5v0__antenna
*I *531:I I *D gf180mcu_fd_sc_mcu7t5v0__clkbuf_1
*CAP
1 wbs_adr_i[21] 0.000326054
2 *182:I 0.00015559
3 *531:I 0.000137299
4 *20:9 0.000618943
5 *182:I *506:A3 0.000490942
6 *531:I *506:A3 6.48288e-05
7 *177:I *531:I 0.000111252
8 *181:I *182:I 5.09899e-05
9 *15:5 *20:9 8.35439e-05
10 *19:9 *182:I 6.61161e-05
11 *19:9 *20:9 0.000318222
*RES
1 wbs_adr_i[21] *20:9 3.534 
2 *20:9 *531:I 5.716 
3 *20:9 *182:I 6.324 
*END

*D_NET *21 0.00332197
*CONN
*P wbs_adr_i[22] I
*I *183:I I *D gf180mcu_fd_sc_mcu7t5v0__antenna
*I *532:I I *D gf180mcu_fd_sc_mcu7t5v0__clkbuf_1
*CAP
1 wbs_adr_i[22] 0.000439045
2 *183:I 0.000148138
3 *532:I 4.60854e-05
4 *21:9 0.000633268
5 *183:I *498:A2 8.80166e-05
6 *183:I *498:A4 8.62563e-05
7 *532:I *495:A1 0.000181273
8 *532:I *538:I 8.84331e-05
9 *532:I *26:13 0.000263004
10 *21:9 *498:A2 1.20079e-05
11 *21:9 *534:I 0.00032464
12 *21:9 *23:9 5.26969e-05
13 *21:9 *26:13 0.000959109
*RES
1 wbs_adr_i[22] *21:9 4.902 
2 *21:9 *532:I 14.488 
3 *21:9 *183:I 5.716 
*END

*D_NET *22 0.00105135
*CONN
*P wbs_adr_i[23] I
*I *533:I I *D gf180mcu_fd_sc_mcu7t5v0__clkbuf_1
*I *184:I I *D gf180mcu_fd_sc_mcu7t5v0__antenna
*CAP
1 wbs_adr_i[23] 0.000255352
2 *533:I 4.72841e-05
3 *184:I 0.000155041
4 *22:5 0.000457678
5 *184:I *498:A1 3.73627e-05
6 *184:I *499:A1 1.48677e-05
7 *184:I *28:7 2.97354e-06
8 *533:I *498:A1 4.27914e-05
9 *22:5 *28:7 3.79987e-05
*RES
1 wbs_adr_i[23] *22:5 1.558 
2 *22:5 *184:I 10.064 
3 *22:5 *533:I 9.38 
*END

*D_NET *23 0.00264468
*CONN
*P wbs_adr_i[24] I
*I *534:I I *D gf180mcu_fd_sc_mcu7t5v0__clkbuf_1
*I *185:I I *D gf180mcu_fd_sc_mcu7t5v0__antenna
*CAP
1 wbs_adr_i[24] 0.000505618
2 *534:I 0.000162156
3 *185:I 0.000263393
4 *23:9 0.000931167
5 *185:I *497:A2 0.000211486
6 *185:I *498:A4 7.5212e-05
7 *534:I *498:A4 4.50449e-05
8 *23:9 *25:9 7.32616e-05
9 *21:9 *534:I 0.00032464
10 *21:9 *23:9 5.26969e-05
*RES
1 wbs_adr_i[24] *23:9 3.99 
2 *23:9 *185:I 6.628 
3 *23:9 *534:I 6.324 
*END

*D_NET *24 0.00207401
*CONN
*P wbs_adr_i[25] I
*I *535:I I *D gf180mcu_fd_sc_mcu7t5v0__clkbuf_1
*I *186:I I *D gf180mcu_fd_sc_mcu7t5v0__antenna
*CAP
1 wbs_adr_i[25] 0.000528325
2 *535:I 6.77208e-05
3 *186:I 1.28472e-05
4 *24:9 0.000608893
5 *186:I *189:I 7.71175e-06
6 *535:I *189:I 1.21826e-05
7 *535:I *497:A1 0.000178203
8 *24:9 *189:I 0.000173764
9 *24:9 *497:A1 0.000166771
10 *24:9 *26:13 0.000203299
11 *24:9 *31:13 0.000114289
*RES
1 wbs_adr_i[25] *24:9 5.054 
2 *24:9 *186:I 4.728 
3 *24:9 *535:I 5.26 
*END

*D_NET *25 0.00261665
*CONN
*P wbs_adr_i[26] I
*I *537:I I *D gf180mcu_fd_sc_mcu7t5v0__clkbuf_1
*I *188:I I *D gf180mcu_fd_sc_mcu7t5v0__antenna
*CAP
1 wbs_adr_i[26] 0.000577072
2 *537:I 0.000125793
3 *188:I 0.00012695
4 *25:9 0.000829815
5 *188:I *497:A2 0.00018402
6 *188:I *501:A1 6.66044e-05
7 *537:I *495:A1 8.62648e-05
8 *25:9 *495:A1 3.71904e-05
9 *25:9 *497:A2 0
10 *25:9 *501:A1 4.58601e-06
11 *25:9 *544:I 0.000333388
12 *25:9 *32:9 0.000171708
13 *23:9 *25:9 7.32616e-05
*RES
1 wbs_adr_i[26] *25:9 9.326 
2 *25:9 *188:I 10.14 
3 *25:9 *537:I 9.836 
*END

*D_NET *26 0.00378302
*CONN
*P wbs_adr_i[27] I
*I *538:I I *D gf180mcu_fd_sc_mcu7t5v0__clkbuf_1
*I *189:I I *D gf180mcu_fd_sc_mcu7t5v0__antenna
*CAP
1 wbs_adr_i[27] 0.000375056
2 *538:I 0.000152135
3 *189:I 0.000273559
4 *26:13 0.00080075
5 *189:I *497:A1 1.34616e-05
6 *189:I *498:A2 0.000315303
7 *538:I *194:I 4.2318e-06
8 *538:I *495:A1 8.38858e-05
9 *538:I *497:A1 3.73627e-05
10 *538:I *31:13 9.88736e-06
11 *26:13 *498:A2 9.88736e-06
12 *186:I *189:I 7.71175e-06
13 *532:I *538:I 8.84331e-05
14 *532:I *26:13 0.000263004
15 *535:I *189:I 1.21826e-05
16 *21:9 *26:13 0.000959109
17 *24:9 *189:I 0.000173764
18 *24:9 *26:13 0.000203299
*RES
1 wbs_adr_i[27] *26:13 9.174 
2 *26:13 *189:I 11.432 
3 *26:13 *538:I 10.216 
*END

*D_NET *27 0.00121548
*CONN
*P wbs_adr_i[28] I
*I *190:I I *D gf180mcu_fd_sc_mcu7t5v0__antenna
*I *539:I I *D gf180mcu_fd_sc_mcu7t5v0__clkbuf_1
*CAP
1 wbs_adr_i[28] 0.000344858
2 *190:I 0
3 *539:I 0.000196129
4 *27:7 0.000540987
5 *539:I *498:A1 7.57767e-05
6 *539:I *499:A2 4.58601e-06
7 *27:7 *499:A1 8.92063e-06
8 *27:7 *28:7 4.42236e-05
*RES
1 wbs_adr_i[28] *27:7 6.666 
2 *27:7 *539:I 5.868 
3 *27:7 *190:I 4.5 
*END

*D_NET *28 0.000929399
*CONN
*P wbs_adr_i[29] I
*I *191:I I *D gf180mcu_fd_sc_mcu7t5v0__antenna
*I *540:I I *D gf180mcu_fd_sc_mcu7t5v0__clkbuf_1
*CAP
1 wbs_adr_i[29] 0.000254016
2 *191:I 0.000130424
3 *540:I 0
4 *28:7 0.00038444
5 *191:I *498:A1 7.53241e-05
6 *184:I *28:7 2.97354e-06
7 *22:5 *28:7 3.79987e-05
8 *27:7 *28:7 4.42236e-05
*RES
1 wbs_adr_i[29] *28:7 6.058 
2 *28:7 *540:I 4.5 
3 *28:7 *191:I 5.412 
*END

*D_NET *29 0.00379157
*CONN
*P wbs_adr_i[2] I
*I *192:I I *D gf180mcu_fd_sc_mcu7t5v0__antenna
*I *541:I I *D gf180mcu_fd_sc_mcu7t5v0__clkbuf_1
*CAP
1 wbs_adr_i[2] 0.000615452
2 *192:I 0.000119969
3 *541:I 2.08894e-06
4 *29:13 0.00073751
5 *192:I *193:I 0.00011703
6 *192:I *194:I 8.81157e-05
7 *541:I *495:A2 0.000222333
8 *541:I *500:A1 0.000215472
9 *29:13 *495:A2 0.000238087
10 *29:13 *500:A1 0.000333388
11 *29:13 *542:I 0.000257176
12 *180:I *29:13 9.88736e-06
13 *7:9 *29:13 0.000478242
14 *18:9 *29:13 0.000356815
*RES
1 wbs_adr_i[2] *29:13 10.998 
2 *29:13 *541:I 9.532 
3 *29:13 *192:I 10.14 
*END

*D_NET *30 0.00418946
*CONN
*P wbs_adr_i[30] I
*I *542:I I *D gf180mcu_fd_sc_mcu7t5v0__clkbuf_1
*I *193:I I *D gf180mcu_fd_sc_mcu7t5v0__antenna
*CAP
1 wbs_adr_i[30] 0.000592056
2 *542:I 0.00018905
3 *193:I 0.000481424
4 *30:9 0.00126253
5 *193:I *194:I 0
6 *193:I *495:A1 1.72881e-05
7 *193:I *495:A2 0.000441055
8 *193:I *500:A2 0.000107848
9 *193:I *543:I 2.22758e-05
10 *30:9 *31:13 0.000104109
11 *180:I *193:I 0.000176188
12 *192:I *193:I 0.00011703
13 *198:I *193:I 0
14 *7:9 *193:I 2.57058e-06
15 *18:9 *193:I 6.78619e-05
16 *18:9 *542:I 0.000257176
17 *18:9 *30:9 9.38262e-05
18 *29:13 *542:I 0.000257176
*RES
1 wbs_adr_i[30] *30:9 8.76426 
2 *30:9 *193:I 13.104 
3 *30:9 *542:I 10.5002 
*END

*D_NET *31 0.00288445
*CONN
*P wbs_adr_i[31] I
*I *543:I I *D gf180mcu_fd_sc_mcu7t5v0__clkbuf_1
*I *194:I I *D gf180mcu_fd_sc_mcu7t5v0__antenna
*CAP
1 wbs_adr_i[31] 0.000652026
2 *543:I 0.00013047
3 *194:I 0.000325611
4 *31:13 0.00110811
5 *194:I *495:A1 8.97311e-05
6 *194:I *497:A1 1.7502e-05
7 *194:I *501:A2 9.50826e-05
8 *543:I *495:A1 7.80043e-05
9 *543:I *495:A2 0
10 *31:13 *495:A1 4.50047e-05
11 *192:I *194:I 8.81157e-05
12 *193:I *194:I 0
13 *193:I *543:I 2.22758e-05
14 *538:I *194:I 4.2318e-06
15 *538:I *31:13 9.88736e-06
16 *24:9 *31:13 0.000114289
17 *30:9 *31:13 0.000104109
*RES
1 wbs_adr_i[31] *31:13 9.174 
2 *31:13 *194:I 11.356 
3 *31:13 *543:I 9.912 
*END

*D_NET *32 0.00210678
*CONN
*P wbs_adr_i[3] I
*I *195:I I *D gf180mcu_fd_sc_mcu7t5v0__antenna
*I *544:I I *D gf180mcu_fd_sc_mcu7t5v0__clkbuf_1
*CAP
1 wbs_adr_i[3] 0.000605863
2 *195:I 0
3 *544:I 3.69856e-05
4 *32:9 0.000642848
5 *544:I *495:A1 0.000190808
6 *32:9 *501:A1 8.02751e-06
7 *32:9 *501:A3 0
8 *32:9 *34:5 0.000117156
9 *25:9 *544:I 0.000333388
10 *25:9 *32:9 0.000171708
*RES
1 wbs_adr_i[3] *32:9 4.75 
2 *32:9 *544:I 14.488 
3 *32:9 *195:I 4.5 
*END

*D_NET *33 0.00196555
*CONN
*P wbs_adr_i[4] I
*I *545:I I *D gf180mcu_fd_sc_mcu7t5v0__clkbuf_1
*I *196:I I *D gf180mcu_fd_sc_mcu7t5v0__antenna
*CAP
1 wbs_adr_i[4] 0.000421031
2 *545:I 5.46724e-05
3 *196:I 7.84377e-05
4 *33:5 0.000554141
5 *196:I *501:A4 3.75402e-05
6 *196:I *505:A2 0.000329336
7 *196:I *506:A1 7.83779e-05
8 *545:I *506:A1 0
9 *33:5 *501:A4 1.72912e-05
10 *33:5 *505:A2 8.55327e-05
11 *33:5 *34:5 0.000117156
12 *555:I *33:5 7.38898e-05
13 *9:9 *33:5 0.00011814
*RES
1 wbs_adr_i[4] *33:5 3.838 
2 *33:5 *196:I 5.488 
3 *33:5 *545:I 4.88 
*END

*D_NET *34 0.00213578
*CONN
*P wbs_adr_i[5] I
*I *197:I I *D gf180mcu_fd_sc_mcu7t5v0__antenna
*I *546:I I *D gf180mcu_fd_sc_mcu7t5v0__clkbuf_1
*CAP
1 wbs_adr_i[5] 0.000443991
2 *197:I 5.21369e-05
3 *546:I 8.38472e-05
4 *34:5 0.000579975
5 *197:I *501:A3 0.00015399
6 *197:I *501:A4 0.000338864
7 *546:I *495:A1 0.000118643
8 *34:5 *501:A3 3.73535e-05
9 *34:5 *501:A4 9.26705e-05
10 *32:9 *34:5 0.000117156
11 *33:5 *34:5 0.000117156
*RES
1 wbs_adr_i[5] *34:5 3.838 
2 *34:5 *546:I 14.184 
3 *34:5 *197:I 5.488 
*END

*D_NET *35 0.00344773
*CONN
*P wbs_adr_i[6] I
*I *199:I I *D gf180mcu_fd_sc_mcu7t5v0__antenna
*I *548:I I *D gf180mcu_fd_sc_mcu7t5v0__clkbuf_1
*CAP
1 wbs_adr_i[6] 0.000495355
2 *199:I 0.000529106
3 *548:I 0
4 *35:7 0.00102446
5 *199:I wbs_dat_o[29] 1.72953e-05
6 *199:I *503:A3 8.46183e-05
7 *199:I *503:A4 7.83779e-05
8 *199:I *504:A2 0.000135795
9 *35:7 *504:A2 3.73627e-05
10 *206:I *199:I 1.51867e-05
11 *208:I *199:I 0.000199473
12 *209:I *199:I 0.000429933
13 *559:I *35:7 8.84958e-06
14 *11:9 *199:I 0.000165876
15 *11:9 *35:7 0.00011865