*SPEF "ieee 1481-1999"
*DESIGN "wishbone_register"
*DATE "11:11:11 Fri 11 11, 1111"
*VENDOR "OpenRCX"
*PROGRAM "Parallel Extraction"
*VERSION "1.0"
*DESIGN_FLOW "NAME_SCOPE LOCAL" "PIN_CAP NONE"
*DIVIDER /
*DELIMITER :
*BUS_DELIMITER []
*T_UNIT 1 NS
*C_UNIT 1 PF
*R_UNIT 1 OHM
*L_UNIT 1 HENRY

*NAME_MAP
*1 reg_q_o
*4 wb_clk_i
*5 wb_rst_i
*6 wbs_ack_o
*7 wbs_adr_i[0]
*8 wbs_adr_i[10]
*9 wbs_adr_i[11]
*10 wbs_adr_i[12]
*11 wbs_adr_i[13]
*12 wbs_adr_i[14]
*13 wbs_adr_i[15]
*14 wbs_adr_i[16]
*15 wbs_adr_i[17]
*16 wbs_adr_i[18]
*17 wbs_adr_i[19]
*18 wbs_adr_i[1]
*19 wbs_adr_i[20]
*20 wbs_adr_i[21]
*21 wbs_adr_i[22]
*22 wbs_adr_i[23]
*23 wbs_adr_i[24]
*24 wbs_adr_i[25]
*25 wbs_adr_i[26]
*26 wbs_adr_i[27]
*27 wbs_adr_i[28]
*28 wbs_adr_i[29]
*29 wbs_adr_i[2]
*30 wbs_adr_i[30]
*31 wbs_adr_i[31]
*32 wbs_adr_i[3]
*33 wbs_adr_i[4]
*34 wbs_adr_i[5]
*35 wbs_adr_i[6]
*36 wbs_adr_i[7]
*37 wbs_adr_i[8]
*38 wbs_adr_i[9]
*39 wbs_cyc_i
*40 wbs_dat_i[0]
*41 wbs_dat_i[10]
*42 wbs_dat_i[11]
*43 wbs_dat_i[12]
*44 wbs_dat_i[13]
*45 wbs_dat_i[14]
*46 wbs_dat_i[15]
*47 wbs_dat_i[16]
*48 wbs_dat_i[17]
*49 wbs_dat_i[18]
*50 wbs_dat_i[19]
*51 wbs_dat_i[1]
*52 wbs_dat_i[20]
*53 wbs_dat_i[21]
*54 wbs_dat_i[22]
*55 wbs_dat_i[23]
*56 wbs_dat_i[24]
*57 wbs_dat_i[25]
*58 wbs_dat_i[26]
*59 wbs_dat_i[27]
*60 wbs_dat_i[28]
*61 wbs_dat_i[29]
*62 wbs_dat_i[2]
*63 wbs_dat_i[30]
*64 wbs_dat_i[31]
*65 wbs_dat_i[3]
*66 wbs_dat_i[4]
*67 wbs_dat_i[5]
*68 wbs_dat_i[6]
*69 wbs_dat_i[7]
*70 wbs_dat_i[8]
*71 wbs_dat_i[9]
*72 wbs_dat_o[0]
*73 net49
*74 net50
*75 net51
*76 net52
*77 net53
*78 net54
*79 net55
*80 net56
*81 net57
*82 net58
*83 net40
*84 net59
*85 net60
*86 net61
*87 net62
*88 net63
*89 net64
*90 net65
*91 net66
*92 net67
*93 net68
*94 net41
*95 net69
*96 net70
*97 net42
*98 net43
*99 net44
*100 net45
*101 net46
*102 net47
*103 net48
*104 wbs_sel_i[0]
*105 wbs_sel_i[1]
*106 wbs_sel_i[2]
*107 wbs_sel_i[3]
*108 wbs_stb_i
*109 wbs_we_i
*110 _00_
*111 _01_
*112 _02_
*113 _03_
*114 _04_
*115 _05_
*116 _06_
*117 _07_
*118 _08_
*119 _09_
*120 _10_
*121 _11_
*122 _12_
*123 _13_
*124 _14_
*125 _15_
*126 _16_
*127 _17_
*128 _18_
*129 _19_
*130 _20_
*131 _21_
*132 _22_
*133 clknet_0_wb_clk_i
*134 clknet_1_0__leaf_wb_clk_i
*135 clknet_1_1__leaf_wb_clk_i
*136 net1
*137 net10
*138 net11
*139 net12
*140 net13
*141 net14
*142 net15
*143 net16
*144 net17
*145 net18
*146 net19
*147 net2
*148 net20
*149 net21
*150 net22
*151 net23
*152 net24
*153 net25
*154 net26
*155 net27
*156 net28
*157 net29
*158 net3
*159 net30
*160 net31
*161 net32
*162 net33
*163 net34
*164 net35
*165 net36
*166 net37
*167 net38
*168 net39
*169 net4
*170 net5
*171 net6
*172 net7
*173 net71
*174 net8
*175 net9
*176 ANTENNA_clkbuf_0_wb_clk_i_I
*177 ANTENNA_input10_I
*178 ANTENNA_input11_I
*179 ANTENNA_input12_I
*180 ANTENNA_input13_I
*181 ANTENNA_input14_I
*182 ANTENNA_input15_I
*183 ANTENNA_input16_I
*184 ANTENNA_input17_I
*185 ANTENNA_input18_I
*186 ANTENNA_input19_I
*187 ANTENNA_input1_I
*188 ANTENNA_input20_I
*189 ANTENNA_input21_I
*190 ANTENNA_input22_I
*191 ANTENNA_input23_I
*192 ANTENNA_input24_I
*193 ANTENNA_input25_I
*194 ANTENNA_input26_I
*195 ANTENNA_input27_I
*196 ANTENNA_input28_I
*197 ANTENNA_input29_I
*198 ANTENNA_input2_I
*199 ANTENNA_input30_I
*200 ANTENNA_input31_I
*201 ANTENNA_input32_I
*202 ANTENNA_input33_I
*203 ANTENNA_input34_I
*204 ANTENNA_input35_I
*205 ANTENNA_input36_I
*206 ANTENNA_input3_I
*207 ANTENNA_input4_I
*208 ANTENNA_input5_I
*209 ANTENNA_input6_I
*210 ANTENNA_input7_I
*211 ANTENNA_input8_I
*212 ANTENNA_input9_I
*213 FILLER_0_0_134
*214 FILLER_0_0_150
*215 FILLER_0_0_2
*216 FILLER_0_0_36
*217 FILLER_0_0_70
*218 FILLER_0_0_72
*219 FILLER_0_0_97
*220 FILLER_0_0_99
*221 FILLER_0_10_102
*222 FILLER_0_10_104
*223 FILLER_0_10_107
*224 FILLER_0_10_12
*225 FILLER_0_10_139
*226 FILLER_0_10_147
*227 FILLER_0_10_151
*228 FILLER_0_10_28
*229 FILLER_0_10_32
*230 FILLER_0_10_37
*231 FILLER_0_10_8
*232 FILLER_0_10_94
*233 FILLER_0_11_114
*234 FILLER_0_11_130
*235 FILLER_0_11_138
*236 FILLER_0_11_142
*237 FILLER_0_11_150
*238 FILLER_0_11_22
*239 FILLER_0_11_30
*240 FILLER_0_11_34
*241 FILLER_0_11_36
*242 FILLER_0_11_6
*243 FILLER_0_11_72
*244 FILLER_0_11_82
*245 FILLER_0_12_101
*246 FILLER_0_12_107
*247 FILLER_0_12_139
*248 FILLER_0_12_147
*249 FILLER_0_12_151
*250 FILLER_0_12_2
*251 FILLER_0_12_34
*252 FILLER_0_12_37
*253 FILLER_0_13_136
*254 FILLER_0_13_142
*255 FILLER_0_13_150
*256 FILLER_0_13_6
*257 FILLER_0_13_72
*258 FILLER_0_14_107
*259 FILLER_0_14_139
*260 FILLER_0_14_147
*261 FILLER_0_14_151
*262 FILLER_0_14_22
*263 FILLER_0_14_30
*264 FILLER_0_14_34
*265 FILLER_0_14_37
*266 FILLER_0_14_6
*267 FILLER_0_14_89
*268 FILLER_0_15_117
*269 FILLER_0_15_133
*270 FILLER_0_15_137
*271 FILLER_0_15_139
*272 FILLER_0_15_14
*273 FILLER_0_15_142
*274 FILLER_0_15_18
*275 FILLER_0_15_23
*276 FILLER_0_15_31
*277 FILLER_0_15_35
*278 FILLER_0_15_41
*279 FILLER_0_15_47
*280 FILLER_0_15_51
*281 FILLER_0_15_55
*282 FILLER_0_15_59
*283 FILLER_0_15_6
*284 FILLER_0_15_65
*285 FILLER_0_15_69
*286 FILLER_0_15_72
*287 FILLER_0_15_80
*288 FILLER_0_15_82
*289 FILLER_0_15_85
*290 FILLER_0_16_101
*291 FILLER_0_16_108
*292 FILLER_0_16_113
*293 FILLER_0_16_119
*294 FILLER_0_16_125
*295 FILLER_0_16_131
*296 FILLER_0_16_150
*297 FILLER_0_16_36
*298 FILLER_0_16_54
*299 FILLER_0_16_61
*300 FILLER_0_16_63
*301 FILLER_0_16_70
*302 FILLER_0_16_72
*303 FILLER_0_16_77
*304 FILLER_0_16_83
*305 FILLER_0_16_95
*306 FILLER_0_1_107
*307 FILLER_0_1_110
*308 FILLER_0_1_116
*309 FILLER_0_1_122
*310 FILLER_0_1_124
*311 FILLER_0_1_133
*312 FILLER_0_1_142
*313 FILLER_0_1_144
*314 FILLER_0_1_151
*315 FILLER_0_1_18
*316 FILLER_0_1_24
*317 FILLER_0_1_26
*318 FILLER_0_1_29
*319 FILLER_0_1_33
*320 FILLER_0_1_43
*321 FILLER_0_1_47
*322 FILLER_0_1_49
*323 FILLER_0_1_52
*324 FILLER_0_1_58
*325 FILLER_0_1_62
*326 FILLER_0_1_66
*327 FILLER_0_1_72
*328 FILLER_0_1_76
*329 FILLER_0_1_79
*330 FILLER_0_1_85
*331 FILLER_0_1_91
*332 FILLER_0_2_104
*333 FILLER_0_2_107
*334 FILLER_0_2_12
*335 FILLER_0_2_123
*336 FILLER_0_2_125
*337 FILLER_0_2_128
*338 FILLER_0_2_138
*339 FILLER_0_2_142
*340 FILLER_0_2_18
*341 FILLER_0_2_22
*342 FILLER_0_2_30
*343 FILLER_0_2_34
*344 FILLER_0_2_37
*345 FILLER_0_2_69
*346 FILLER_0_2_71
*347 FILLER_0_2_88
*348 FILLER_0_3_10
*349 FILLER_0_3_120
*350 FILLER_0_3_136
*351 FILLER_0_3_14
*352 FILLER_0_3_142
*353 FILLER_0_3_146
*354 FILLER_0_3_46
*355 FILLER_0_3_6
*356 FILLER_0_3_68
*357 FILLER_0_3_72
*358 FILLER_0_3_76
*359 FILLER_0_4_104
*360 FILLER_0_4_107
*361 FILLER_0_4_139
*362 FILLER_0_4_147
*363 FILLER_0_4_151
*364 FILLER_0_4_2
*365 FILLER_0_4_22
*366 FILLER_0_4_30
*367 FILLER_0_4_34
*368 FILLER_0_4_37
*369 FILLER_0_4_53
*370 FILLER_0_4_57
*371 FILLER_0_4_59
*372 FILLER_0_4_6
*373 FILLER_0_4_97
*374 FILLER_0_5_118
*375 FILLER_0_5_134
*376 FILLER_0_5_138
*377 FILLER_0_5_142
*378 FILLER_0_5_148
*379 FILLER_0_5_2
*380 FILLER_0_5_38
*381 FILLER_0_5_46
*382 FILLER_0_5_50
*383 FILLER_0_5_6
*384 FILLER_0_5_72
*385 FILLER_0_5_74
*386 FILLER_0_6_107
*387 FILLER_0_6_12
*388 FILLER_0_6_139
*389 FILLER_0_6_28
*390 FILLER_0_6_32
*391 FILLER_0_6_34
*392 FILLER_0_6_37
*393 FILLER_0_6_41
*394 FILLER_0_6_43
*395 FILLER_0_6_94
*396 FILLER_0_6_98
*397 FILLER_0_7_121
*398 FILLER_0_7_137
*399 FILLER_0_7_139
*400 FILLER_0_7_142
*401 FILLER_0_7_2
*402 FILLER_0_7_34
*403 FILLER_0_8_102
*404 FILLER_0_8_104
*405 FILLER_0_8_112
*406 FILLER_0_8_144
*407 FILLER_0_8_2
*408 FILLER_0_8_34
*409 FILLER_0_8_37
*410 FILLER_0_9_103
*411 FILLER_0_9_135
*412 FILLER_0_9_139
*413 FILLER_0_9_142
*414 FILLER_0_9_150
*415 FILLER_0_9_22
*416 FILLER_0_9_30
*417 FILLER_0_9_34
*418 FILLER_0_9_6
*419 FILLER_0_9_72
*420 FILLER_0_9_74
*421 FILLER_0_9_80
*422 FILLER_0_9_82
*423 PHY_EDGE_ROW_0_Left_17
*424 PHY_EDGE_ROW_0_Right_0
*425 PHY_EDGE_ROW_10_Left_27
*426 PHY_EDGE_ROW_10_Right_10
*427 PHY_EDGE_ROW_11_Left_28
*428 PHY_EDGE_ROW_11_Right_11
*429 PHY_EDGE_ROW_12_Left_29
*430 PHY_EDGE_ROW_12_Right_12
*431 PHY_EDGE_ROW_13_Left_30
*432 PHY_EDGE_ROW_13_Right_13
*433 PHY_EDGE_ROW_14_Left_31
*434 PHY_EDGE_ROW_14_Right_14
*435 PHY_EDGE_ROW_15_Left_32
*436 PHY_EDGE_ROW_15_Right_15
*437 PHY_EDGE_ROW_16_Left_33
*438 PHY_EDGE_ROW_16_Right_16
*439 PHY_EDGE_ROW_1_Left_18
*440 PHY_EDGE_ROW_1_Right_1
*441 PHY_EDGE_ROW_2_Left_19
*442 PHY_EDGE_ROW_2_Right_2
*443 PHY_EDGE_ROW_3_Left_20
*444 PHY_EDGE_ROW_3_Right_3
*445 PHY_EDGE_ROW_4_Left_21
*446 PHY_EDGE_ROW_4_Right_4
*447 PHY_EDGE_ROW_5_Left_22
*448 PHY_EDGE_ROW_5_Right_5
*449 PHY_EDGE_ROW_6_Left_23
*450 PHY_EDGE_ROW_6_Right_6
*451 PHY_EDGE_ROW_7_Left_24
*452 PHY_EDGE_ROW_7_Right_7
*453 PHY_EDGE_ROW_8_Left_25
*454 PHY_EDGE_ROW_8_Right_8
*455 PHY_EDGE_ROW_9_Left_26
*456 PHY_EDGE_ROW_9_Right_9
*457 TAP_TAPCELL_ROW_0_34
*458 TAP_TAPCELL_ROW_0_35
*459 TAP_TAPCELL_ROW_0_36
*460 TAP_TAPCELL_ROW_0_37
*461 TAP_TAPCELL_ROW_10_56
*462 TAP_TAPCELL_ROW_10_57
*463 TAP_TAPCELL_ROW_11_58
*464 TAP_TAPCELL_ROW_11_59
*465 TAP_TAPCELL_ROW_12_60
*466 TAP_TAPCELL_ROW_12_61
*467 TAP_TAPCELL_ROW_13_62
*468 TAP_TAPCELL_ROW_13_63
*469 TAP_TAPCELL_ROW_14_64
*470 TAP_TAPCELL_ROW_14_65
*471 TAP_TAPCELL_ROW_15_66
*472 TAP_TAPCELL_ROW_15_67
*473 TAP_TAPCELL_ROW_16_68
*474 TAP_TAPCELL_ROW_16_69
*475 TAP_TAPCELL_ROW_16_70
*476 TAP_TAPCELL_ROW_16_71
*477 TAP_TAPCELL_ROW_1_38
*478 TAP_TAPCELL_ROW_1_39
*479 TAP_TAPCELL_ROW_2_40
*480 TAP_TAPCELL_ROW_2_41
*481 TAP_TAPCELL_ROW_3_42
*482 TAP_TAPCELL_ROW_3_43
*483 TAP_TAPCELL_ROW_4_44
*484 TAP_TAPCELL_ROW_4_45
*485 TAP_TAPCELL_ROW_5_46
*486 TAP_TAPCELL_ROW_5_47
*487 TAP_TAPCELL_ROW_6_48
*488 TAP_TAPCELL_ROW_6_49
*489 TAP_TAPCELL_ROW_7_50
*490 TAP_TAPCELL_ROW_7_51
*491 TAP_TAPCELL_ROW_8_52
*492 TAP_TAPCELL_ROW_8_53
*493 TAP_TAPCELL_ROW_9_54
*494 TAP_TAPCELL_ROW_9_55
*495 _24_
*496 _25_
*497 _26_
*498 _27_
*499 _28_
*500 _29_
*501 _30_
*502 _31_
*503 _32_
*504 _33_
*505 _34_
*506 _35_
*507 _36_
*508 _37_
*509 _38_
*510 _39_
*511 _40_
*512 _41_
*513 _42_
*514 _43_
*515 _44_
*516 _45_
*517 _46_
*518 _47_
*519 _48_
*520 _48__71
*521 _49_
*522 clkbuf_0_wb_clk_i
*523 clkbuf_1_0__f_wb_clk_i
*524 clkbuf_1_1__f_wb_clk_i
*525 input1
*526 input10
*527 input11
*528 input12
*529 input13
*530 input14
*531 input15
*532 input16
*533 input17
*534 input18
*535 input19
*536 input2
*537 input20
*538 input21
*539 input22
*540 input23
*541 input24
*542 input25
*543 input26
*544 input27
*545 input28
*546 input29
*547 input3
*548 input30
*549 input31
*550 input32
*551 input33
*552 input34
*553 input35
*554 input36
*555 input4
*556 input5
*557 input6
*558 input7
*559 input8
*560 input9
*561 output37
*562 output38
*563 output39
*564 wishbone_register_40
*565 wishbone_register_41
*566 wishbone_register_42
*567 wishbone_register_43
*568 wishbone_register_44
*569 wishbone_register_45
*570 wishbone_register_46
*571 wishbone_register_47
*572 wishbone_register_48
*573 wishbone_register_49
*574 wishbone_register_50
*575 wishbone_register_51
*576 wishbone_register_52
*577 wishbone_register_53
*578 wishbone_register_54
*579 wishbone_register_55
*580 wishbone_register_56
*581 wishbone_register_57
*582 wishbone_register_58
*583 wishbone_register_59
*584 wishbone_register_60
*585 wishbone_register_61
*586 wishbone_register_62
*587 wishbone_register_63
*588 wishbone_register_64
*589 wishbone_register_65
*590 wishbone_register_66
*591 wishbone_register_67
*592 wishbone_register_68
*593 wishbone_register_69
*594 wishbone_register_70

*PORTS
reg_q_o O
wb_clk_i I
wb_rst_i I
wbs_ack_o O
wbs_adr_i[0] I
wbs_adr_i[10] I
wbs_adr_i[11] I
wbs_adr_i[12] I
wbs_adr_i[13] I
wbs_adr_i[14] I
wbs_adr_i[15] I
wbs_adr_i[16] I
wbs_adr_i[17] I
wbs_adr_i[18] I
wbs_adr_i[19] I
wbs_adr_i[1] I
wbs_adr_i[20] I
wbs_adr_i[21] I
wbs_adr_i[22] I
wbs_adr_i[23] I
wbs_adr_i[24] I
wbs_adr_i[25] I
wbs_adr_i[26] I
wbs_adr_i[27] I
wbs_adr_i[28] I
wbs_adr_i[29] I
wbs_adr_i[2] I
wbs_adr_i[30] I
wbs_adr_i[31] I
wbs_adr_i[3] I
wbs_adr_i[4] I
wbs_adr_i[5] I
wbs_adr_i[6] I
wbs_adr_i[7] I
wbs_adr_i[8] I
wbs_adr_i[9] I
wbs_cyc_i I
wbs_dat_i[0] I
wbs_dat_i[10] I
wbs_dat_i[11] I
wbs_dat_i[12] I
wbs_dat_i[13] I
wbs_dat_i[14] I
wbs_dat_i[15] I
wbs_dat_i[16] I
wbs_dat_i[17] I
wbs_dat_i[18] I
wbs_dat_i[19] I
wbs_dat_i[1] I
wbs_dat_i[20] I
wbs_dat_i[21] I
wbs_dat_i[22] I
wbs_dat_i[23] I
wbs_dat_i[24] I
wbs_dat_i[25] I
wbs_dat_i[26] I
wbs_dat_i[27] I
wbs_dat_i[28] I
wbs_dat_i[29] I
wbs_dat_i[2] I
wbs_dat_i[30] I
wbs_dat_i[31] I
wbs_dat_i[3] I
wbs_dat_i[4] I
wbs_dat_i[5] I
wbs_dat_i[6] I
wbs_dat_i[7] I
wbs_dat_i[8] I
wbs_dat_i[9] I
wbs_dat_o[0] O
wbs_dat_o[10] O
wbs_dat_o[11] O
wbs_dat_o[12] O
wbs_dat_o[13] O
wbs_dat_o[14] O
wbs_dat_o[15] O
wbs_dat_o[16] O
wbs_dat_o[17] O
wbs_dat_o[18] O
wbs_dat_o[19] O
wbs_dat_o[1] O
wbs_dat_o[20] O
wbs_dat_o[21] O
wbs_dat_o[22] O
wbs_dat_o[23] O
wbs_dat_o[24] O
wbs_dat_o[25] O
wbs_dat_o[26] O
wbs_dat_o[27] O
wbs_dat_o[28] O
wbs_dat_o[29] O
wbs_dat_o[2] O
wbs_dat_o[30] O
wbs_dat_o[31] O
wbs_dat_o[3] O
wbs_dat_o[4] O
wbs_dat_o[5] O
wbs_dat_o[6] O
wbs_dat_o[7] O
wbs_dat_o[8] O
wbs_dat_o[9] O
wbs_sel_i[0] I
wbs_sel_i[1] I
wbs_sel_i[2] I
wbs_sel_i[3] I
wbs_stb_i I
wbs_we_i I

*D_NET *1 0.00137031
*CONN
*P reg_q_o O
*I *561:Z O *D gf180mcu_fd_sc_mcu7t5v0__clkbuf_4
*CAP
1 reg_q_o 0.00063671
2 *561:Z 0.00063671
3 reg_q_o wbs_dat_o[18] 9.68871e-05
*RES
1 *561:Z reg_q_o 9.585 
*END

*D_NET *4 0.00318421
*CONN
*P wb_clk_i I
*I *176:I I *D gf180mcu_fd_sc_mcu7t5v0__antenna
*I *522:I I *D gf180mcu_fd_sc_mcu7t5v0__clkbuf_16
*CAP
1 wb_clk_i 0.00118886
2 *176:I 0
3 *522:I 0.000366729
4 *4:11 0.00155559
5 *522:I *521:D 1.87589e-05
6 *4:11 wbs_dat_o[5] 5.42682e-05
7 *4:11 *519:D 0
8 *4:11 *521:D 0
*RES
1 wb_clk_i *4:11 13.185 
2 *4:11 *522:I 15.57 
3 *4:11 *176:I 4.5 
*END

*D_NET *5 0.00196434
*CONN
*P wb_rst_i I
*I *525:I I *D gf180mcu_fd_sc_mcu7t5v0__clkbuf_1
*I *187:I I *D gf180mcu_fd_sc_mcu7t5v0__antenna
*CAP
1 wb_rst_i 0.000494358
2 *525:I 6.21589e-05
3 *187:I 0.000143202
4 *5:5 0.000699718
5 *187:I wbs_dat_o[21] 2.30981e-05
6 *187:I wbs_dat_o[26] 7.71476e-06
7 *187:I *136:14 2.99208e-05
8 *5:5 wbs_dat_o[21] 0.000357696
9 *5:5 wbs_dat_o[26] 0.000146469
*RES
1 wb_rst_i *5:5 5.265 
2 *5:5 *187:I 5.49 
3 *5:5 *525:I 4.95 
*END

*D_NET *6 0.00200753
*CONN
*P wbs_ack_o O
*I *562:Z O *D gf180mcu_fd_sc_mcu7t5v0__buf_3
*CAP
1 wbs_ack_o 0.000866463
2 *562:Z 0.000866463
3 wbs_ack_o wbs_dat_o[0] 0.00013875
4 wbs_ack_o wbs_dat_o[27] 0.000135851
*RES
1 *562:Z wbs_ack_o 20.475 
*END

*D_NET *7 0.00305896
*CONN
*P wbs_adr_i[0] I
*I *198:I I *D gf180mcu_fd_sc_mcu7t5v0__antenna
*I *536:I I *D gf180mcu_fd_sc_mcu7t5v0__clkbuf_1
*CAP
1 wbs_adr_i[0] 0.000986843
2 *198:I 0.000192553
3 *536:I 0
4 *7:9 0.0011794
5 *198:I *193:I 0
6 *198:I *500:A2 5.56123e-05
7 *7:9 *180:I 7.102e-05
8 *7:9 *193:I 2.65444e-06
9 *7:9 *500:A2 3.22122e-05
10 *7:9 *29:13 0.000538665
*RES
1 wbs_adr_i[0] *7:9 8.325 
2 *7:9 *536:I 4.5 
3 *7:9 *198:I 5.94 
*END

*D_NET *8 0.00436767
*CONN
*P wbs_adr_i[10] I
*I *206:I I *D gf180mcu_fd_sc_mcu7t5v0__antenna
*I *547:I I *D gf180mcu_fd_sc_mcu7t5v0__clkbuf_1
*CAP
1 wbs_adr_i[10] 0.00118781
2 *206:I 0.000323385
3 *547:I 0
4 *8:13 0.0015112
5 *206:I *199:I 1.51499e-05
6 *206:I *208:I 0.000121576
7 *206:I *503:A2 0.000316121
8 *206:I *504:A2 1.23607e-05
9 *206:I *505:A1 2.77594e-05
10 *8:13 wbs_dat_o[6] 7.79841e-05
11 *8:13 *504:A2 0.000567809
12 *8:13 *505:A1 5.75641e-05
13 *8:13 *559:I 2.31089e-05
14 *8:13 *10:11 0.000125837
*RES
1 wbs_adr_i[10] *8:13 18.765 
2 *8:13 *547:I 4.5 
3 *8:13 *206:I 7.65 
*END

*D_NET *9 0.00255062
*CONN
*P wbs_adr_i[11] I
*I *555:I I *D gf180mcu_fd_sc_mcu7t5v0__clkbuf_1
*I *207:I I *D gf180mcu_fd_sc_mcu7t5v0__antenna
*CAP
1 wbs_adr_i[11] 0.000415338
2 *555:I 0.000152417
3 *207:I 0.000249033
4 *9:9 0.000816789
5 *207:I *200:I 0.000141287
6 *207:I *503:A1 0.000151588
7 *207:I *36:15 5.09492e-05
8 *555:I *503:A1 0.000171874
9 *555:I *505:A2 9.85004e-05
10 *555:I *33:5 7.86984e-05
11 *9:9 *33:5 0.000121952
12 *9:9 *36:15 0.000102196
*RES
1 wbs_adr_i[11] *9:9 4.185 
2 *9:9 *207:I 6.75 
3 *9:9 *555:I 5.94 
*END

*D_NET *10 0.00361714
*CONN
*P wbs_adr_i[12] I
*I *208:I I *D gf180mcu_fd_sc_mcu7t5v0__antenna
*I *556:I I *D gf180mcu_fd_sc_mcu7t5v0__clkbuf_1
*CAP
1 wbs_adr_i[12] 0.000872806
2 *208:I 0.000182044
3 *556:I 1.68334e-05
4 *10:11 0.00107168
5 *208:I wbs_dat_o[28] 4.34199e-06
6 *208:I wbs_dat_o[29] 0.000139482
7 *208:I *199:I 0.000229402
8 *208:I *503:A4 0.000204492
9 *556:I *209:I 9.85004e-05
10 *10:11 wbs_dat_o[28] 0.000137182
11 *10:11 wbs_dat_o[29] 0.000277473
12 *10:11 *209:I 0
13 *10:11 *11:9 0.000135491
14 *206:I *208:I 0.000121576
15 *8:13 *10:11 0.000125837
*RES
1 wbs_adr_i[12] *10:11 13.185 
2 *10:11 *556:I 9.27 
3 *10:11 *208:I 11.34 
*END

*D_NET *11 0.00365295
*CONN
*P wbs_adr_i[13] I
*I *209:I I *D gf180mcu_fd_sc_mcu7t5v0__antenna
*I *557:I I *D gf180mcu_fd_sc_mcu7t5v0__clkbuf_1
*CAP
1 wbs_adr_i[13] 0.00068944
2 *209:I 0.000262858
3 *557:I 0
4 *11:9 0.000952298
5 *209:I wbs_dat_o[28] 0.000368557
6 *209:I *199:I 0.00049538
7 *209:I *503:A4 0.000352176
8 *11:9 *199:I 0.000176643
9 *11:9 *35:7 0.000121611
10 *556:I *209:I 9.85004e-05
11 *10:11 *209:I 0
12 *10:11 *11:9 0.000135491
*RES
1 wbs_adr_i[13] *11:9 6.525 
2 *11:9 *557:I 4.5 
3 *11:9 *209:I 8.28 
*END

*D_NET *12 0.00196412
*CONN
*P wbs_adr_i[14] I
*I *210:I I *D gf180mcu_fd_sc_mcu7t5v0__antenna
*I *558:I I *D gf180mcu_fd_sc_mcu7t5v0__clkbuf_1
*CAP
1 wbs_adr_i[14] 0.000460392
2 *210:I 0.000233152
3 *558:I 0
4 *12:5 0.000693544
5 *210:I *179:I 0.000101226
6 *210:I *211:I 8.00792e-05
7 *210:I *17:5 1.3448e-06
8 *12:5 *211:I 0.000129902
9 *12:5 *505:A2 4.04802e-05
10 *12:5 *13:5 0.000109419
11 *12:5 *17:5 0.000114579
*RES
1 wbs_adr_i[14] *12:5 4.545 
2 *12:5 *558:I 4.5 
3 *12:5 *210:I 6.66 
*END

*D_NET *13 0.00286886
*CONN
*P wbs_adr_i[15] I
*I *211:I I *D gf180mcu_fd_sc_mcu7t5v0__antenna
*I *559:I I *D gf180mcu_fd_sc_mcu7t5v0__clkbuf_1
*CAP
1 wbs_adr_i[15] 0.000393264
2 *211:I 0.000433839
3 *559:I 6.85028e-05
4 *13:5 0.000895606
5 *211:I wbs_dat_o[6] 0.000232503
6 *211:I *505:A1 0.000302844
7 *559:I *505:A1 8.05869e-05
8 *559:I *35:7 8.60758e-06
9 *13:5 *35:7 0.000110594
10 *210:I *211:I 8.00792e-05
11 *8:13 *559:I 2.31089e-05
12 *12:5 *211:I 0.000129902
13 *12:5 *13:5 0.000109419
*RES
1 wbs_adr_i[15] *13:5 3.825 
2 *13:5 *559:I 5.31 
3 *13:5 *211:I 8.28 
*END

*D_NET *14 0.00178413
*CONN
*P wbs_adr_i[16] I
*I *212:I I *D gf180mcu_fd_sc_mcu7t5v0__antenna
*I *560:I I *D gf180mcu_fd_sc_mcu7t5v0__clkbuf_1
*CAP
1 wbs_adr_i[16] 0.00049359
2 *212:I 0.000127407
3 *560:I 0
4 *14:5 0.000620997
5 *212:I *179:I 9.88049e-06
6 *212:I *505:A4 0.000180811
7 *212:I *506:A1 4.91082e-05
8 *14:5 *505:A4 3.98088e-05
9 *14:5 *506:A1 2.84698e-05
10 *14:5 *16:5 0.000119202
11 *14:5 *17:5 0.00011486
*RES
1 wbs_adr_i[16] *14:5 4.545 
2 *14:5 *560:I 4.5 
3 *14:5 *212:I 5.94 
*END

*D_NET *15 0.00240561
*CONN
*P wbs_adr_i[17] I
*I *177:I I *D gf180mcu_fd_sc_mcu7t5v0__antenna
*I *526:I I *D gf180mcu_fd_sc_mcu7t5v0__clkbuf_1
*CAP
1 wbs_adr_i[17] 0.000409857
2 *177:I 0.00024612
3 *526:I 0.00013236
4 *15:5 0.000788337
5 *177:I *505:A3 0.000233886
6 *177:I *506:A3 6.84043e-05
7 *177:I *531:I 0.000118507
8 *526:I *201:I 0.000138071
9 *526:I *505:A3 0.000108151
10 *15:5 *20:9 8.62694e-05
11 *15:5 *37:9 7.56516e-05
*RES
1 wbs_adr_i[17] *15:5 3.825 
2 *15:5 *526:I 5.94 
3 *15:5 *177:I 6.84 
*END

*D_NET *16 0.00186985
*CONN
*P wbs_adr_i[18] I
*I *527:I I *D gf180mcu_fd_sc_mcu7t5v0__clkbuf_1
*I *178:I I *D gf180mcu_fd_sc_mcu7t5v0__antenna
*CAP
1 wbs_adr_i[18] 0.000608602
2 *527:I 9.23929e-05
3 *178:I 0
4 *16:5 0.000700995
5 *527:I *504:A4 1.53122e-05
6 *527:I *505:A4 5.30888e-06
7 *16:5 *504:A4 1.94149e-05
8 *16:5 *505:A4 8.40905e-05
9 *16:5 *550:I 4.30393e-05
10 *16:5 *37:9 0.000181496
11 *14:5 *16:5 0.000119202
*RES
1 wbs_adr_i[18] *16:5 5.625 
2 *16:5 *178:I 4.5 
3 *16:5 *527:I 5.22 
*END

*D_NET *17 0.00189863
*CONN
*P wbs_adr_i[19] I
*I *179:I I *D gf180mcu_fd_sc_mcu7t5v0__antenna
*I *528:I I *D gf180mcu_fd_sc_mcu7t5v0__buf_1
*CAP
1 wbs_adr_i[19] 0.000505862
2 *179:I 0.000166961
3 *528:I 0
4 *17:5 0.000672823
5 *179:I *506:A1 0.000129894
6 *17:5 *505:A2 1.20019e-05
7 *17:5 *506:A1 6.91924e-05
8 *210:I *179:I 0.000101226
9 *210:I *17:5 1.3448e-06
10 *212:I *179:I 9.88049e-06
11 *12:5 *17:5 0.000114579
12 *14:5 *17:5 0.00011486
*RES
1 wbs_adr_i[19] *17:5 4.545 
2 *17:5 *528:I 4.5 
3 *17:5 *179:I 6.3 
*END

*D_NET *18 0.00288593
*CONN
*P wbs_adr_i[1] I
*I *529:I I *D gf180mcu_fd_sc_mcu7t5v0__clkbuf_1
*I *180:I I *D gf180mcu_fd_sc_mcu7t5v0__antenna
*CAP
1 wbs_adr_i[1] 0.000568958
2 *529:I 3.04092e-05
3 *180:I 0.000175115
4 *18:9 0.000774481
5 *180:I *193:I 0.00019879
6 *180:I *29:13 1.0415e-05
7 *18:9 *193:I 7.01527e-05
8 *18:9 *495:A2 0.000215887
9 *18:9 *542:I 0.000296035
10 *18:9 *29:13 0.00037778
11 *18:9 *30:9 9.68871e-05
12 *7:9 *180:I 7.102e-05
*RES
1 wbs_adr_i[1] *18:9 6.525 
2 *18:9 *180:I 6.03 
3 *18:9 *529:I 4.77 
*END

*D_NET *19 0.00227656
*CONN
*P wbs_adr_i[20] I
*I *181:I I *D gf180mcu_fd_sc_mcu7t5v0__antenna
*I *530:I I *D gf180mcu_fd_sc_mcu7t5v0__clkbuf_1
*CAP
1 wbs_adr_i[20] 0.000515741
2 *181:I 0.000144634
3 *530:I 0
4 *19:9 0.000660375
5 *181:I *182:I 5.15895e-05
6 *181:I *506:A4 0.000455413
7 *19:9 *182:I 6.85452e-05
8 *19:9 *506:A4 3.61411e-05
9 *19:9 *20:9 0.000332177
10 *19:9 *38:9 1.1945e-05
*RES
1 wbs_adr_i[20] *19:9 5.085 
2 *19:9 *530:I 4.5 
3 *19:9 *181:I 6.12 
*END

*D_NET *20 0.00265375
*CONN
*P wbs_adr_i[21] I
*I *182:I I *D gf180mcu_fd_sc_mcu7t5v0__antenna
*I *531:I I *D gf180mcu_fd_sc_mcu7t5v0__clkbuf_1
*CAP
1 wbs_adr_i[21] 0.000347343
2 *182:I 0.000176734
3 *531:I 0.000157097
4 *20:9 0.000681173
5 *182:I *506:A3 0.000565127
6 *531:I *506:A3 6.91924e-05
7 *177:I *531:I 0.000118507
8 *181:I *182:I 5.15895e-05
9 *15:5 *20:9 8.62694e-05
10 *19:9 *182:I 6.85452e-05
11 *19:9 *20:9 0.000332177
*RES
1 wbs_adr_i[21] *20:9 4.185 
2 *20:9 *531:I 5.94 
3 *20:9 *182:I 6.66 
*END

*D_NET *21 0.00369359
*CONN
*P wbs_adr_i[22] I
*I *183:I I *D gf180mcu_fd_sc_mcu7t5v0__antenna
*I *532:I I *D gf180mcu_fd_sc_mcu7t5v0__clkbuf_1
*CAP
1 wbs_adr_i[22] 0.000466392
2 *183:I 0.000167769
3 *532:I 5.48874e-05
4 *21:9 0.000689048
5 *183:I *498:A2 9.09976e-05
6 *183:I *498:A4 8.93635e-05
7 *532:I *495:A1 0.000193631
8 *532:I *538:I 0.000101624
9 *532:I *26:13 0.000302293
10 *21:9 *498:A2 1.23607e-05
11 *21:9 *534:I 0.00037349
12 *21:9 *23:9 5.44161e-05
13 *21:9 *26:13 0.00109732
*RES
1 wbs_adr_i[22] *21:9 5.805 
2 *21:9 *532:I 14.67 
3 *21:9 *183:I 5.94 
*END

*D_NET *22 0.00114241
*CONN
*P wbs_adr_i[23] I
*I *533:I I *D gf180mcu_fd_sc_mcu7t5v0__clkbuf_1
*I *184:I I *D gf180mcu_fd_sc_mcu7t5v0__antenna
*CAP
1 wbs_adr_i[23] 0.000280315
2 *533:I 5.19339e-05
3 *184:I 0.000168183
4 *22:5 0.000500432
5 *184:I *498:A1 3.98088e-05
6 *184:I *499:A1 1.54403e-05
7 *184:I *28:7 3.08806e-06
8 *533:I *498:A1 4.45837e-05
9 *22:5 *28:7 3.86299e-05
*RES
1 wbs_adr_i[23] *22:5 1.845 
2 *22:5 *184:I 10.26 
3 *22:5 *533:I 9.45 
*END

*D_NET *23 0.00285767
*CONN
*P wbs_adr_i[24] I
*I *534:I I *D gf180mcu_fd_sc_mcu7t5v0__clkbuf_1
*I *185:I I *D gf180mcu_fd_sc_mcu7t5v0__antenna
*CAP
1 wbs_adr_i[24] 0.000532961
2 *534:I 0.000173631
3 *185:I 0.000295077
4 *23:9 0.00100167
5 *185:I *497:A2 0.000225332
6 *185:I *498:A4 7.70954e-05
7 *534:I *498:A4 4.83522e-05
8 *23:9 *25:9 7.56516e-05
9 *21:9 *534:I 0.00037349
10 *21:9 *23:9 5.44161e-05
*RES
1 wbs_adr_i[24] *23:9 4.725 
2 *23:9 *185:I 7.02 
3 *23:9 *534:I 6.66 
*END

*D_NET *24 0.00224116
*CONN
*P wbs_adr_i[25] I
*I *535:I I *D gf180mcu_fd_sc_mcu7t5v0__clkbuf_1
*I *186:I I *D gf180mcu_fd_sc_mcu7t5v0__antenna
*CAP
1 wbs_adr_i[25] 0.000577318
2 *535:I 7.24849e-05
3 *186:I 1.35843e-05
4 *24:9 0.000663388
5 *186:I *189:I 7.96333e-06
6 *535:I *189:I 1.25581e-05
7 *535:I *497:A1 0.000205036
8 *24:9 *189:I 0.000184544
9 *24:9 *497:A1 0.000177493
10 *24:9 *26:13 0.000209501
11 *24:9 *31:13 0.000117284
*RES
1 wbs_adr_i[25] *24:9 5.985 
2 *24:9 *186:I 4.77 
3 *24:9 *535:I 5.4 
*END

*D_NET *25 0.00285696
*CONN
*P wbs_adr_i[26] I
*I *537:I I *D gf180mcu_fd_sc_mcu7t5v0__clkbuf_1
*I *188:I I *D gf180mcu_fd_sc_mcu7t5v0__antenna
*CAP
1 wbs_adr_i[26] 0.000620371
2 *537:I 0.000141511
3 *188:I 0.000147159
4 *25:9 0.000909041
5 *188:I *497:A2 0.000195949
6 *188:I *501:A1 6.77686e-05
7 *537:I *495:A1 8.89146e-05
8 *25:9 *495:A1 3.8796e-05
9 *25:9 *497:A2 0
10 *25:9 *501:A1 4.6613e-06
11 *25:9 *544:I 0.000382884
12 *25:9 *32:9 0.000184258
13 *23:9 *25:9 7.56516e-05
*RES
1 wbs_adr_i[26] *25:9 10.215 
2 *25:9 *188:I 10.35 
3 *25:9 *537:I 9.99 
*END

*D_NET *26 0.0041949
*CONN
*P wbs_adr_i[27] I
*I *538:I I *D gf180mcu_fd_sc_mcu7t5v0__clkbuf_1
*I *189:I I *D gf180mcu_fd_sc_mcu7t5v0__antenna
*CAP
1 wbs_adr_i[27] 0.000406295
2 *538:I 0.0001703
3 *189:I 0.000312901
4 *26:13 0.000889497
5 *189:I *497:A1 1.28898e-05
6 *189:I *498:A2 0.000334992
7 *538:I *194:I 4.34467e-06
8 *538:I *495:A1 8.72359e-05
9 *538:I *497:A1 3.98088e-05
10 *538:I *31:13 1.0415e-05
11 *26:13 *498:A2 1.0415e-05
12 *186:I *189:I 7.96333e-06
13 *532:I *538:I 0.000101624
14 *532:I *26:13 0.000302293
15 *535:I *189:I 1.25581e-05
16 *21:9 *26:13 0.00109732
17 *24:9 *189:I 0.000184544
18 *24:9 *26:13 0.000209501
*RES
1 wbs_adr_i[27] *26:13 10.035 
2 *26:13 *189:I 11.88 
3 *26:13 *538:I 10.44 
*END

*D_NET *27 0.00131525
*CONN
*P wbs_adr_i[28] I
*I *190:I I *D gf180mcu_fd_sc_mcu7t5v0__antenna
*I *539:I I *D gf180mcu_fd_sc_mcu7t5v0__clkbuf_1
*CAP
1 wbs_adr_i[28] 0.000374873
2 *190:I 0
3 *539:I 0.000213885
4 *27:7 0.000588757
5 *539:I *498:A1 7.82853e-05
6 *539:I *499:A2 4.6613e-06
7 *27:7 *499:A1 9.26419e-06
8 *27:7 *28:7 4.55292e-05
*RES
1 wbs_adr_i[28] *27:7 7.065 
2 *27:7 *539:I 6.12 
3 *27:7 *190:I 4.5 
*END

*D_NET *28 0.00101439
*CONN
*P wbs_adr_i[29] I
*I *191:I I *D gf180mcu_fd_sc_mcu7t5v0__antenna
*I *540:I I *D gf180mcu_fd_sc_mcu7t5v0__clkbuf_1
*CAP
1 wbs_adr_i[29] 0.000280676
2 *191:I 0.000143693
3 *540:I 0
4 *28:7 0.000424369
5 *191:I *498:A1 7.84068e-05
6 *184:I *28:7 3.08806e-06
7 *22:5 *28:7 3.86299e-05
8 *27:7 *28:7 4.55292e-05
*RES
1 wbs_adr_i[29] *28:7 6.345 
2 *28:7 *540:I 4.5 
3 *28:7 *191:I 5.58 
*END

*D_NET *29 0.00420986
*CONN
*P wbs_adr_i[2] I
*I *192:I I *D gf180mcu_fd_sc_mcu7t5v0__antenna
*I *541:I I *D gf180mcu_fd_sc_mcu7t5v0__clkbuf_1
*CAP
1 wbs_adr_i[2] 0.000668611
2 *192:I 0.000136425
3 *541:I 2.67276e-06
4 *29:13 0.000807708
5 *192:I *193:I 0.000121576
6 *192:I *194:I 9.10772e-05
7 *541:I *495:A2 0.000255088
8 *541:I *500:A1 0.000247379
9 *29:13 *495:A2 0.000273542
10 *29:13 *500:A1 0.000382884
11 *29:13 *542:I 0.000296035
12 *180:I *29:13 1.0415e-05
13 *7:9 *29:13 0.000538665
14 *18:9 *29:13 0.00037778
*RES
1 wbs_adr_i[2] *29:13 12.195 
2 *29:13 *541:I 9.63 
3 *29:13 *192:I 10.35 
*END

*D_NET *30 0.00464355
*CONN
*P wbs_adr_i[30] I
*I *542:I I *D gf180mcu_fd_sc_mcu7t5v0__clkbuf_1
*I *193:I I *D gf180mcu_fd_sc_mcu7t5v0__antenna
*CAP
1 wbs_adr_i[30] 0.000640451
2 *542:I 0.0002151
3 *193:I 0.000541112
4 *30:9 0.00139666
5 *193:I *194:I 0
6 *193:I *495:A1 1.77397e-05
7 *193:I *495:A2 0.000507492
8 *193:I *500:A2 0.000112242
9 *193:I *543:I 2.31089e-05
10 *30:9 *31:13 0.000107505
11 *180:I *193:I 0.00019879
12 *192:I *193:I 0.000121576
13 *198:I *193:I 0
14 *7:9 *193:I 2.65444e-06
15 *18:9 *193:I 7.01527e-05
16 *18:9 *542:I 0.000296035
17 *18:9 *30:9 9.68871e-05
18 *29:13 *542:I 0.000296035
*RES
1 wbs_adr_i[30] *30:9 9.54978 
2 *30:9 *193:I 13.86 
3 *30:9 *542:I 10.7765 
*END

*D_NET *31 0.0031423
*CONN
*P wbs_adr_i[31] I
*I *543:I I *D gf180mcu_fd_sc_mcu7t5v0__clkbuf_1
*I *194:I I *D gf180mcu_fd_sc_mcu7t5v0__antenna
*CAP
1 wbs_adr_i[31] 0.000713996
2 *543:I 0.000145422
3 *194:I 0.000365642
4 *31:13 0.00122506
5 *194:I *495:A1 9.57249e-05
6 *194:I *497:A1 1.78457e-05
7 *194:I *501:A2 9.95639e-05
8 *543:I *495:A1 8.20305e-05
9 *543:I *495:A2 0
10 *31:13 *495:A1 4.32813e-05
11 *192:I *194:I 9.10772e-05
12 *193:I *194:I 0
13 *193:I *543:I 2.31089e-05
14 *538:I *194:I 4.34467e-06
15 *538:I *31:13 1.0415e-05
16 *24:9 *31:13 0.000117284
17 *30:9 *31:13 0.000107505
*RES
1 wbs_adr_i[31] *31:13 10.035 
2 *31:13 *194:I 11.79 
3 *31:13 *543:I 10.08 
*END

*D_NET *32 0.00228442
*CONN
*P wbs_adr_i[3] I
*I *195:I I *D gf180mcu_fd_sc_mcu7t5v0__antenna
*I *544:I I *D gf180mcu_fd_sc_mcu7t5v0__clkbuf_1
*CAP
1 wbs_adr_i[3] 0.00064893
2 *195:I 0
3 *544:I 4.34773e-05
4 *32:9 0.000692408
5 *544:I *495:A1 0.000204177
6 *32:9 *501:A1 8.12023e-06
7 *32:9 *501:A3 0
8 *32:9 *34:5 0.000120169
9 *25:9 *544:I 0.000382884
10 *25:9 *32:9 0.000184258
*RES
1 wbs_adr_i[3] *32:9 5.625 
2 *32:9 *544:I 14.67 
3 *32:9 *195:I 4.5 
*END

*D_NET *33 0.0021458
*CONN
*P wbs_adr_i[4] I
*I *545:I I *D gf180mcu_fd_sc_mcu7t5v0__clkbuf_1
*I *196:I I *D gf180mcu_fd_sc_mcu7t5v0__antenna
*CAP
1 wbs_adr_i[4] 0.00045141
2 *545:I 5.74829e-05
3 *196:I 9.16135e-05
4 *33:5 0.000600506
5 *196:I *501:A4 3.75875e-05
6 *196:I *505:A2 0.000379514
7 *196:I *506:A1 9.04462e-05
8 *545:I *506:A1 0
9 *33:5 *501:A4 1.79237e-05
10 *33:5 *505:A2 9.85004e-05
11 *33:5 *34:5 0.000120169
12 *555:I *33:5 7.86984e-05
13 *9:9 *33:5 0.000121952
*RES
1 wbs_adr_i[4] *33:5 4.545 
2 *33:5 *196:I 5.67 
3 *33:5 *545:I 4.95 
*END

*D_NET *34 0.00233323
*CONN
*P wbs_adr_i[5] I
*I *197:I I *D gf180mcu_fd_sc_mcu7t5v0__antenna
*I *546:I I *D gf180mcu_fd_sc_mcu7t5v0__clkbuf_1
*CAP
1 wbs_adr_i[5] 0.000475955
2 *197:I 6.30019e-05
3 *546:I 9.41043e-05
4 *34:5 0.000633062
5 *197:I *501:A3 0.000163714
6 *197:I *501:A4 0.00039024
7 *546:I *495:A1 0.000126485
8 *34:5 *501:A3 3.97987e-05
9 *34:5 *501:A4 0.000106536
10 *32:9 *34:5 0.000120169
11 *33:5 *34:5 0.000120169
*RES
1 wbs_adr_i[5] *34:5 4.545 
2 *34:5 *546:I 14.31 
3 *34:5 *197:I 5.67 
*END

*D_NET *35 0.00378908
*CONN
*P wbs_adr_i[6] I
*I *199:I I *D gf180mcu_fd_sc_mcu7t5v0__antenna
*I *548:I I *D gf180mcu_fd_sc_mcu7t5v0__clkbuf_1
*CAP
1 wbs_adr_i[6] 0.00053157
2 *199:I 0.000596871
3 *548:I 0
4 *35:7 0.00112844
5 *199:I wbs_dat_o[29] 1.81129e-05
6 *199:I *503:A3 8.50142e-05
7 *199:I *503:A4 9.04462e-05
8 *199:I *504:A2 0.000141427
9 *35:7 *504:A2 3.98088e-05
10 *206:I *199:I 1.51499e-05
11 *208:I *199:I 0.000229402
12 *209:I *199:I 0.00049538
13 *559:I *35:7 8.60758e-06
14 *11:9 *199:I 0.000176643
15 *11:9 *35:7 0.000121611
16 *13:5 *35:7 0.000110594
*RES
1 wbs_adr_i[6] *35:7 4.815 